MODEL 1
REMARK VINA RESULT:      -5.8      0.000      0.000
REMARK  Name = *****
REMARK                            x       y       z     vdW  Elec       q    Type
REMARK                         _______ _______ _______ _____ _____    ______ ____
ROOT
ATOM      1  C   LIG    1       27.780 -21.725   7.640  0.00  0.00    +0.149 C 
ATOM      2  N   LIG    1       28.539 -20.619   7.043  0.00  0.00    -0.349 N 
ATOM      3  C   LIG    1       29.831 -20.244   7.533  0.00  0.00    +0.063 C 
ATOM      4  C   LIG    1       30.459 -20.858   8.565  0.00  0.00    +0.183 C 
ATOM      5  C   LIG    1       30.476 -19.109   6.833  0.00  0.00    +0.027 C 
ATOM      6  C   LIG    1       29.885 -18.478   5.805  0.00  0.00    +0.003 C 
ATOM      7  C   LIG    1       28.583 -18.896   5.346  0.00  0.00    +0.018 C 
ATOM      8  C   LIG    1       27.983 -19.919   5.968  0.00  0.00    +0.086 C 
ENDROOT
BRANCH   4   9
ATOM      9  N   LIG    1       31.663 -20.523   9.036  0.00  0.00    -0.036 NA
ATOM     10  O   LIG    1       32.301 -21.472   9.504  0.00  0.00    -0.144 OA
ENDBRANCH   4   9
TORSDOF 1
ENDMDL
MODEL 2
REMARK VINA RESULT:      -5.6      0.792      2.398
REMARK  Name = *****
REMARK                            x       y       z     vdW  Elec       q    Type
REMARK                         _______ _______ _______ _____ _____    ______ ____
ROOT
ATOM      1  C   LIG    1       30.129 -18.734   6.002  0.00  0.00    +0.149 C 
ATOM      2  N   LIG    1       29.163 -19.704   6.534  0.00  0.00    -0.349 N 
ATOM      3  C   LIG    1       29.473 -20.533   7.658  0.00  0.00    +0.063 C 
ATOM      4  C   LIG    1       30.655 -20.503   8.321  0.00  0.00    +0.183 C 
ATOM      5  C   LIG    1       28.402 -21.465   8.081  0.00  0.00    +0.027 C 
ATOM      6  C   LIG    1       27.217 -21.521   7.451  0.00  0.00    +0.003 C 
ATOM      7  C   LIG    1       26.952 -20.661   6.324  0.00  0.00    +0.018 C 
ATOM      8  C   LIG    1       27.909 -19.814   5.925  0.00  0.00    +0.086 C 
ENDROOT
BRANCH   4   9
ATOM      9  N   LIG    1       30.963 -21.269   9.371  0.00  0.00    -0.036 NA
ATOM     10  O   LIG    1       32.174 -21.478   9.503  0.00  0.00    -0.144 OA
ENDBRANCH   4   9
TORSDOF 1
ENDMDL
MODEL 3
REMARK VINA RESULT:      -5.5      4.202      5.435
REMARK  Name = *****
REMARK                            x       y       z     vdW  Elec       q    Type
REMARK                         _______ _______ _______ _____ _____    ______ ____
ROOT
ATOM      1  C   LIG    1       24.528 -20.781   4.807  0.00  0.00    +0.149 C 
ATOM      2  N   LIG    1       24.984 -21.950   5.571  0.00  0.00    -0.349 N 
ATOM      3  C   LIG    1       25.701 -21.809   6.801  0.00  0.00    +0.063 C 
ATOM      4  C   LIG    1       26.018 -20.617   7.363  0.00  0.00    +0.183 C 
ATOM      5  C   LIG    1       26.099 -23.075   7.458  0.00  0.00    +0.027 C 
ATOM      6  C   LIG    1       25.800 -24.275   6.933  0.00  0.00    +0.003 C 
ATOM      7  C   LIG    1       25.072 -24.364   5.691  0.00  0.00    +0.018 C 
ATOM      8  C   LIG    1       24.706 -23.229   5.081  0.00  0.00    +0.086 C 
ENDROOT
BRANCH   4   9
ATOM      9  N   LIG    1       26.687 -20.466   8.509  0.00  0.00    -0.036 NA
ATOM     10  O   LIG    1       25.963 -20.409   9.509  0.00  0.00    -0.144 OA
ENDBRANCH   4   9
TORSDOF 1
ENDMDL
MODEL 4
REMARK VINA RESULT:      -5.5      4.020      5.358
REMARK  Name = *****
REMARK                            x       y       z     vdW  Elec       q    Type
REMARK                         _______ _______ _______ _____ _____    ______ ____
ROOT
ATOM      1  C   LIG    1       26.969 -19.985   5.118  0.00  0.00    +0.149 C 
ATOM      2  N   LIG    1       25.593 -20.320   5.509  0.00  0.00    -0.349 N 
ATOM      3  C   LIG    1       25.234 -20.541   6.876  0.00  0.00    +0.063 C 
ATOM      4  C   LIG    1       26.105 -20.464   7.912  0.00  0.00    +0.183 C 
ATOM      5  C   LIG    1       23.811 -20.872   7.119  0.00  0.00    +0.027 C 
ATOM      6  C   LIG    1       22.919 -20.954   6.118  0.00  0.00    +0.003 C 
ATOM      7  C   LIG    1       23.330 -20.720   4.756  0.00  0.00    +0.018 C 
ATOM      8  C   LIG    1       24.614 -20.421   4.517  0.00  0.00    +0.086 C 
ENDROOT
BRANCH   4   9
ATOM      9  N   LIG    1       25.788 -20.667   9.194  0.00  0.00    -0.036 NA
ATOM     10  O   LIG    1       25.770 -21.858   9.524  0.00  0.00    -0.144 OA
ENDBRANCH   4   9
TORSDOF 1
ENDMDL
MODEL 5
REMARK VINA RESULT:      -5.3      4.971      6.763
REMARK  Name = *****
REMARK                            x       y       z     vdW  Elec       q    Type
REMARK                         _______ _______ _______ _____ _____    ______ ____
ROOT
ATOM      1  C   LIG    1       26.791 -22.227   7.369  0.00  0.00    +0.149 C 
ATOM      2  N   LIG    1       25.417 -22.698   7.152  0.00  0.00    -0.349 N 
ATOM      3  C   LIG    1       25.142 -24.031   6.711  0.00  0.00    +0.063 C 
ATOM      4  C   LIG    1       26.096 -24.961   6.460  0.00  0.00    +0.183 C 
ATOM      5  C   LIG    1       23.709 -24.363   6.534  0.00  0.00    +0.027 C 
ATOM      6  C   LIG    1       22.736 -23.469   6.776  0.00  0.00    +0.003 C 
ATOM      7  C   LIG    1       23.065 -22.138   7.222  0.00  0.00    +0.018 C 
ATOM      8  C   LIG    1       24.356 -21.818   7.386  0.00  0.00    +0.086 C 
ENDROOT
BRANCH   4   9
ATOM      9  N   LIG    1       25.857 -26.209   6.047  0.00  0.00    -0.036 NA
ATOM     10  O   LIG    1       26.706 -26.649   5.264  0.00  0.00    -0.144 OA
ENDBRANCH   4   9
TORSDOF 1
ENDMDL
MODEL 6
REMARK VINA RESULT:      -5.3      3.600      5.021
REMARK  Name = *****
REMARK                            x       y       z     vdW  Elec       q    Type
REMARK                         _______ _______ _______ _____ _____    ______ ____
ROOT
ATOM      1  C   LIG    1       25.833 -24.513   6.858  0.00  0.00    +0.149 C 
ATOM      2  N   LIG    1       25.091 -23.253   7.001  0.00  0.00    -0.349 N 
ATOM      3  C   LIG    1       25.724 -22.058   7.466  0.00  0.00    +0.063 C 
ATOM      4  C   LIG    1       27.033 -21.975   7.808  0.00  0.00    +0.183 C 
ATOM      5  C   LIG    1       24.849 -20.866   7.561  0.00  0.00    +0.027 C 
ATOM      6  C   LIG    1       23.548 -20.909   7.229  0.00  0.00    +0.003 C 
ATOM      7  C   LIG    1       22.957 -22.139   6.762  0.00  0.00    +0.018 C 
ATOM      8  C   LIG    1       23.732 -23.228   6.671  0.00  0.00    +0.086 C 
ENDROOT
BRANCH   4   9
ATOM      9  N   LIG    1       27.641 -20.868   8.244  0.00  0.00    -0.036 NA
ATOM     10  O   LIG    1       28.870 -20.969   8.324  0.00  0.00    -0.144 OA
ENDBRANCH   4   9
TORSDOF 1
ENDMDL
MODEL 7
REMARK VINA RESULT:      -5.3      4.195      4.956
REMARK  Name = *****
REMARK                            x       y       z     vdW  Elec       q    Type
REMARK                         _______ _______ _______ _____ _____    ______ ____
ROOT
ATOM      1  C   LIG    1       22.962 -22.604   6.446  0.00  0.00    +0.149 C 
ATOM      2  N   LIG    1       24.045 -21.737   5.964  0.00  0.00    -0.349 N 
ATOM      3  C   LIG    1       25.134 -21.356   6.809  0.00  0.00    +0.063 C 
ATOM      4  C   LIG    1       25.268 -21.749   8.100  0.00  0.00    +0.183 C 
ATOM      5  C   LIG    1       26.150 -20.477   6.186  0.00  0.00    +0.027 C 
ATOM      6  C   LIG    1       26.053 -20.070   4.910  0.00  0.00    +0.003 C 
ATOM      7  C   LIG    1       24.936 -20.484   4.097  0.00  0.00    +0.018 C 
ATOM      8  C   LIG    1       24.005 -21.277   4.644  0.00  0.00    +0.086 C 
ENDROOT
BRANCH   4   9
ATOM      9  N   LIG    1       26.277 -21.404   8.904  0.00  0.00    -0.036 NA
ATOM     10  O   LIG    1       26.055 -20.396   9.584  0.00  0.00    -0.144 OA
ENDBRANCH   4   9
TORSDOF 1
ENDMDL
MODEL 8
REMARK VINA RESULT:      -5.3      3.664      5.147
REMARK  Name = *****
REMARK                            x       y       z     vdW  Elec       q    Type
REMARK                         _______ _______ _______ _____ _____    ______ ____
ROOT
ATOM      1  C   LIG    1       25.858 -19.864   4.346  0.00  0.00    +0.149 C 
ATOM      2  N   LIG    1       25.000 -20.457   5.379  0.00  0.00    -0.349 N 
ATOM      3  C   LIG    1       25.477 -20.695   6.707  0.00  0.00    +0.063 C 
ATOM      4  C   LIG    1       26.732 -20.402   7.126  0.00  0.00    +0.183 C 
ATOM      5  C   LIG    1       24.499 -21.300   7.640  0.00  0.00    +0.027 C 
ATOM      6  C   LIG    1       23.245 -21.601   7.261  0.00  0.00    +0.003 C 
ATOM      7  C   LIG    1       22.811 -21.340   5.911  0.00  0.00    +0.018 C 
ATOM      8  C   LIG    1       23.683 -20.794   5.052  0.00  0.00    +0.086 C 
ENDROOT
BRANCH   4   9
ATOM      9  N   LIG    1       27.195 -20.616   8.361  0.00  0.00    -0.036 NA
ATOM     10  O   LIG    1       28.167 -21.379   8.407  0.00  0.00    -0.144 OA
ENDBRANCH   4   9
TORSDOF 1
ENDMDL
MODEL 9
REMARK VINA RESULT:      -5.3      2.081      2.523
REMARK  Name = *****
REMARK                            x       y       z     vdW  Elec       q    Type
REMARK                         _______ _______ _______ _____ _____    ______ ____
ROOT
ATOM      1  C   LIG    1       30.852 -21.610   9.080  0.00  0.00    +0.149 C 
ATOM      2  N   LIG    1       30.199 -20.752   8.083  0.00  0.00    -0.349 N 
ATOM      3  C   LIG    1       30.629 -19.407   7.852  0.00  0.00    +0.063 C 
ATOM      4  C   LIG    1       31.653 -18.813   8.513  0.00  0.00    +0.183 C 
ATOM      5  C   LIG    1       29.874 -18.663   6.818  0.00  0.00    +0.027 C 
ATOM      6  C   LIG    1       28.856 -19.219   6.141  0.00  0.00    +0.003 C 
ATOM      7  C   LIG    1       28.462 -20.580   6.409  0.00  0.00    +0.018 C 
ATOM      8  C   LIG    1       29.132 -21.269   7.342  0.00  0.00    +0.086 C 
ENDROOT
BRANCH   4   9
ATOM      9  N   LIG    1       32.068 -17.560   8.311  0.00  0.00    -0.036 NA
ATOM     10  O   LIG    1       32.346 -16.950   9.350  0.00  0.00    -0.144 OA
ENDBRANCH   4   9
TORSDOF 1
ENDMDL
