MODEL 1
REMARK VINA RESULT:      -4.0      0.000      0.000
REMARK  Name = *****
REMARK                            x       y       z     vdW  Elec       q    Type
REMARK                         _______ _______ _______ _____ _____    ______ ____
ROOT
ATOM      1  S   LIG    1       23.430 -20.239   4.941  0.00  0.00    +0.075 S 
ATOM      2  O   LIG    1       22.968 -21.540   4.496  0.00  0.00    -0.150 OA
ATOM      3  O   LIG    1       22.724 -19.469   5.938  0.00  0.00    -0.150 OA
ENDROOT
BRANCH   1   4
ATOM      4  C   LIG    1       25.106 -20.437   5.502  0.00  0.00    +0.109 A 
ATOM      5  C   LIG    1       26.146 -19.809   4.811  0.00  0.00    +0.030 A 
ATOM      6  C   LIG    1       27.464 -19.985   5.246  0.00  0.00    +0.024 A 
ATOM      7  C   LIG    1       27.745 -20.724   6.399  0.00  0.00    +0.025 A 
ATOM      8  C   LIG    1       26.694 -21.370   7.059  0.00  0.00    +0.024 A 
ATOM      9  C   LIG    1       25.372 -21.209   6.633  0.00  0.00    +0.030 A 
BRANCH   7  10
ATOM     10  N   LIG    1       29.072 -21.001   6.748  0.00  0.00    -0.358 N 
ATOM     11  H   LIG    1       29.333 -20.664   7.670  0.00  0.00    +0.142 HD
ATOM     12  H   LIG    1       29.341 -21.970   6.608  0.00  0.00    +0.142 HD
ENDBRANCH   7  10
ENDBRANCH   1   4
BRANCH   1  13
ATOM     13  N   LIG    1       23.675 -19.209   3.591  0.00  0.00    -0.183 N 
ATOM     14  H   LIG    1       24.680 -19.279   3.411  0.00  0.00    +0.177 HD
BRANCH  13  19
ATOM     15  C   LIG    1       23.859 -14.251   4.380  0.00  0.00    +0.069 C 
ATOM     16  C   LIG    1       23.493 -15.687   4.324  0.00  0.00    +0.085 A 
ATOM     17  C   LIG    1       24.262 -16.777   3.826  0.00  0.00    +0.035 A 
ATOM     18  C   LIG    1       25.648 -16.735   3.309  0.00  0.00    +0.051 C 
ATOM     19  C   LIG    1       23.413 -17.854   3.962  0.00  0.00    +0.240 A 
ATOM     20  O   LIG    1       22.274 -17.459   4.587  0.00  0.00    -0.338 OA
ATOM     21  N   LIG    1       22.310 -16.095   4.799  0.00  0.00    -0.081 NA
ENDBRANCH  13  19
ENDBRANCH   1  13
TORSDOF 4
ENDMDL
MODEL 2
REMARK VINA RESULT:      -3.6      1.754      5.296
REMARK  Name = *****
REMARK                            x       y       z     vdW  Elec       q    Type
REMARK                         _______ _______ _______ _____ _____    ______ ____
ROOT
ATOM      1  S   LIG    1       22.493 -18.262   4.363  0.00  0.00    +0.075 S 
ATOM      2  O   LIG    1       22.351 -18.430   5.796  0.00  0.00    -0.150 OA
ATOM      3  O   LIG    1       21.353 -18.157   3.481  0.00  0.00    -0.150 OA
ENDROOT
BRANCH   1   4
ATOM      4  C   LIG    1       23.511 -16.828   4.096  0.00  0.00    +0.109 A 
ATOM      5  C   LIG    1       24.781 -16.977   3.531  0.00  0.00    +0.030 A 
ATOM      6  C   LIG    1       25.585 -15.848   3.343  0.00  0.00    +0.024 A 
ATOM      7  C   LIG    1       25.108 -14.570   3.650  0.00  0.00    +0.025 A 
ATOM      8  C   LIG    1       23.847 -14.445   4.243  0.00  0.00    +0.024 A 
ATOM      9  C   LIG    1       23.034 -15.565   4.444  0.00  0.00    +0.030 A 
BRANCH   7  10
ATOM     10  N   LIG    1       25.966 -13.466   3.581  0.00  0.00    -0.358 N 
ATOM     11  H   LIG    1       26.820 -13.642   3.060  0.00  0.00    +0.142 HD
ATOM     12  H   LIG    1       25.511 -12.608   3.283  0.00  0.00    +0.142 HD
ENDBRANCH   7  10
ENDBRANCH   1   4
BRANCH   1  13
ATOM     13  N   LIG    1       23.510 -19.488   3.724  0.00  0.00    -0.183 N 
ATOM     14  H   LIG    1       22.858 -20.127   3.261  0.00  0.00    +0.177 HD
BRANCH  13  19
ATOM     15  C   LIG    1       26.674 -21.509   7.062  0.00  0.00    +0.069 C 
ATOM     16  C   LIG    1       25.498 -21.117   6.247  0.00  0.00    +0.085 A 
ATOM     17  C   LIG    1       25.461 -20.291   5.088  0.00  0.00    +0.035 A 
ATOM     18  C   LIG    1       26.611 -19.684   4.381  0.00  0.00    +0.051 C 
ATOM     19  C   LIG    1       24.117 -20.217   4.792  0.00  0.00    +0.240 A 
ATOM     20  O   LIG    1       23.421 -21.019   5.639  0.00  0.00    -0.338 OA
ATOM     21  N   LIG    1       24.281 -21.571   6.567  0.00  0.00    -0.081 NA
ENDBRANCH  13  19
ENDBRANCH   1  13
TORSDOF 4
ENDMDL
MODEL 3
REMARK VINA RESULT:      -3.6      1.751      5.337
REMARK  Name = *****
REMARK                            x       y       z     vdW  Elec       q    Type
REMARK                         _______ _______ _______ _____ _____    ______ ____
ROOT
ATOM      1  S   LIG    1       22.490 -18.246   4.421  0.00  0.00    +0.075 S 
ATOM      2  O   LIG    1       22.370 -18.414   5.856  0.00  0.00    -0.150 OA
ATOM      3  O   LIG    1       21.336 -18.140   3.558  0.00  0.00    -0.150 OA
ENDROOT
BRANCH   1   4
ATOM      4  C   LIG    1       23.506 -16.814   4.138  0.00  0.00    +0.109 A 
ATOM      5  C   LIG    1       23.017 -15.545   4.461  0.00  0.00    +0.030 A 
ATOM      6  C   LIG    1       23.814 -14.421   4.218  0.00  0.00    +0.024 A 
ATOM      7  C   LIG    1       25.113 -14.558   3.720  0.00  0.00    +0.025 A 
ATOM      8  C   LIG    1       25.572 -15.833   3.374  0.00  0.00    +0.024 A 
ATOM      9  C   LIG    1       24.786 -16.966   3.606  0.00  0.00    +0.030 A 
BRANCH   7  10
ATOM     10  N   LIG    1       25.849 -13.423   3.359  0.00  0.00    -0.358 N 
ATOM     11  H   LIG    1       25.277 -12.602   3.181  0.00  0.00    +0.142 HD
ATOM     12  H   LIG    1       26.623 -13.218   3.982  0.00  0.00    +0.142 HD
ENDBRANCH   7  10
ENDBRANCH   1   4
BRANCH   1  13
ATOM     13  N   LIG    1       23.495 -19.474   3.767  0.00  0.00    -0.183 N 
ATOM     14  H   LIG    1       22.835 -20.108   3.308  0.00  0.00    +0.177 HD
BRANCH  13  19
ATOM     15  C   LIG    1       26.685 -21.524   7.062  0.00  0.00    +0.069 C 
ATOM     16  C   LIG    1       25.503 -21.123   6.262  0.00  0.00    +0.085 A 
ATOM     17  C   LIG    1       25.457 -20.291   5.106  0.00  0.00    +0.035 A 
ATOM     18  C   LIG    1       26.602 -19.687   4.389  0.00  0.00    +0.051 C 
ATOM     19  C   LIG    1       24.110 -20.210   4.825  0.00  0.00    +0.240 A 
ATOM     20  O   LIG    1       23.420 -21.012   5.676  0.00  0.00    -0.338 OA
ATOM     21  N   LIG    1       24.286 -21.572   6.593  0.00  0.00    -0.081 NA
ENDBRANCH  13  19
ENDBRANCH   1  13
TORSDOF 4
ENDMDL
MODEL 4
REMARK VINA RESULT:      -3.4      3.607      6.019
REMARK  Name = *****
REMARK                            x       y       z     vdW  Elec       q    Type
REMARK                         _______ _______ _______ _____ _____    ______ ____
ROOT
ATOM      1  S   LIG    1       24.294 -14.676   3.924  0.00  0.00    +0.075 S 
ATOM      2  O   LIG    1       23.635 -14.760   5.213  0.00  0.00    -0.150 OA
ATOM      3  O   LIG    1       23.665 -14.065   2.775  0.00  0.00    -0.150 OA
ENDROOT
BRANCH   1   4
ATOM      4  C   LIG    1       25.854 -13.861   4.178  0.00  0.00    +0.109 A 
ATOM      5  C   LIG    1       26.279 -13.570   5.477  0.00  0.00    +0.030 A 
ATOM      6  C   LIG    1       27.497 -12.912   5.670  0.00  0.00    +0.024 A 
ATOM      7  C   LIG    1       28.324 -12.603   4.585  0.00  0.00    +0.025 A 
ATOM      8  C   LIG    1       27.868 -12.875   3.290  0.00  0.00    +0.024 A 
ATOM      9  C   LIG    1       26.649 -13.527   3.082  0.00  0.00    +0.030 A 
BRANCH   7  10
ATOM     10  N   LIG    1       29.475 -11.830   4.778  0.00  0.00    -0.358 N 
ATOM     11  H   LIG    1       29.718 -11.692   5.754  0.00  0.00    +0.142 HD
ATOM     12  H   LIG    1       30.273 -12.134   4.228  0.00  0.00    +0.142 HD
ENDBRANCH   7  10
ENDBRANCH   1   4
BRANCH   1  13
ATOM     13  N   LIG    1       24.831 -16.230   3.435  0.00  0.00    -0.183 N 
ATOM     14  H   LIG    1       24.777 -16.196   2.413  0.00  0.00    +0.177 HD
BRANCH  13  19
ATOM     15  C   LIG    1       22.531 -20.460   4.871  0.00  0.00    +0.069 C 
ATOM     16  C   LIG    1       22.880 -19.072   4.481  0.00  0.00    +0.085 A 
ATOM     17  C   LIG    1       24.126 -18.574   4.004  0.00  0.00    +0.035 A 
ATOM     18  C   LIG    1       25.353 -19.351   3.718  0.00  0.00    +0.051 C 
ATOM     19  C   LIG    1       23.897 -17.222   3.866  0.00  0.00    +0.240 A 
ATOM     20  O   LIG    1       22.593 -16.953   4.135  0.00  0.00    -0.338 OA
ATOM     21  N   LIG    1       21.955 -18.107   4.542  0.00  0.00    -0.081 NA
ENDBRANCH  13  19
ENDBRANCH   1  13
TORSDOF 4
ENDMDL
MODEL 5
REMARK VINA RESULT:      -2.8      3.185      3.990
REMARK  Name = *****
REMARK                            x       y       z     vdW  Elec       q    Type
REMARK                         _______ _______ _______ _____ _____    ______ ____
ROOT
ATOM      1  S   LIG    1       26.067 -18.331   3.345  0.00  0.00    +0.075 S 
ATOM      2  O   LIG    1       27.282 -18.004   4.065  0.00  0.00    -0.150 OA
ATOM      3  O   LIG    1       26.086 -18.976   2.052  0.00  0.00    -0.150 OA
ENDROOT
BRANCH   1   4
ATOM      4  C   LIG    1       25.061 -19.323   4.425  0.00  0.00    +0.109 A 
ATOM      5  C   LIG    1       23.672 -19.172   4.409  0.00  0.00    +0.030 A 
ATOM      6  C   LIG    1       22.888 -19.941   5.275  0.00  0.00    +0.024 A 
ATOM      7  C   LIG    1       23.471 -20.903   6.105  0.00  0.00    +0.025 A 
ATOM      8  C   LIG    1       24.865 -21.018   6.129  0.00  0.00    +0.024 A 
ATOM      9  C   LIG    1       25.663 -20.252   5.274  0.00  0.00    +0.030 A 
BRANCH   7  10
ATOM     10  N   LIG    1       22.694 -21.571   7.058  0.00  0.00    -0.358 N 
ATOM     11  H   LIG    1       22.481 -22.534   6.813  0.00  0.00    +0.142 HD
ATOM     12  H   LIG    1       23.045 -21.490   8.007  0.00  0.00    +0.142 HD
ENDBRANCH   7  10
ENDBRANCH   1   4
BRANCH   1  13
ATOM     13  N   LIG    1       25.079 -16.936   3.195  0.00  0.00    -0.183 N 
ATOM     14  H   LIG    1       24.887 -16.881   2.191  0.00  0.00    +0.177 HD
BRANCH  13  19
ATOM     15  C   LIG    1       26.639 -12.451   4.836  0.00  0.00    +0.069 C 
ATOM     16  C   LIG    1       26.519 -13.804   4.240  0.00  0.00    +0.085 A 
ATOM     17  C   LIG    1       25.349 -14.601   4.083  0.00  0.00    +0.035 A 
ATOM     18  C   LIG    1       23.957 -14.228   4.420  0.00  0.00    +0.051 C 
ATOM     19  C   LIG    1       25.832 -15.771   3.537  0.00  0.00    +0.240 A 
ATOM     20  O   LIG    1       27.161 -15.642   3.290  0.00  0.00    -0.338 OA
ATOM     21  N   LIG    1       27.602 -14.416   3.747  0.00  0.00    -0.081 NA
ENDBRANCH  13  19
ENDBRANCH   1  13
TORSDOF 4
ENDMDL
MODEL 6
REMARK VINA RESULT:      -2.2      3.398      4.557
REMARK  Name = *****
REMARK                            x       y       z     vdW  Elec       q    Type
REMARK                         _______ _______ _______ _____ _____    ______ ____
ROOT
ATOM      1  S   LIG    1       22.984 -15.729   4.581  0.00  0.00    +0.075 S 
ATOM      2  O   LIG    1       22.566 -15.186   3.303  0.00  0.00    -0.150 OA
ATOM      3  O   LIG    1       22.198 -15.565   5.783  0.00  0.00    -0.150 OA
ENDROOT
BRANCH   1   4
ATOM      4  C   LIG    1       23.258 -17.471   4.352  0.00  0.00    +0.109 A 
ATOM      5  C   LIG    1       24.415 -17.909   3.700  0.00  0.00    +0.030 A 
ATOM      6  C   LIG    1       24.616 -19.279   3.506  0.00  0.00    +0.024 A 
ATOM      7  C   LIG    1       23.709 -20.215   4.013  0.00  0.00    +0.025 A 
ATOM      8  C   LIG    1       22.543 -19.756   4.635  0.00  0.00    +0.024 A 
ATOM      9  C   LIG    1       22.325 -18.389   4.832  0.00  0.00    +0.030 A 
BRANCH   7  10
ATOM     10  N   LIG    1       23.852 -21.572   3.699  0.00  0.00    -0.358 N 
ATOM     11  H   LIG    1       24.639 -22.019   4.159  0.00  0.00    +0.142 HD
ATOM     12  H   LIG    1       22.997 -22.111   3.801  0.00  0.00    +0.142 HD
ENDBRANCH   7  10
ENDBRANCH   1   4
BRANCH   1  13
ATOM     13  N   LIG    1       24.577 -15.209   4.948  0.00  0.00    -0.183 N 
ATOM     14  H   LIG    1       24.452 -14.600   5.761  0.00  0.00    +0.177 HD
BRANCH  13  19
ATOM     15  C   LIG    1       25.695 -11.447   1.812  0.00  0.00    +0.069 C 
ATOM     16  C   LIG    1       25.557 -12.751   2.504  0.00  0.00    +0.085 A 
ATOM     17  C   LIG    1       24.776 -13.065   3.653  0.00  0.00    +0.035 A 
ATOM     18  C   LIG    1       23.857 -12.166   4.386  0.00  0.00    +0.051 C 
ATOM     19  C   LIG    1       25.075 -14.389   3.889  0.00  0.00    +0.240 A 
ATOM     20  O   LIG    1       25.883 -14.856   2.902  0.00  0.00    -0.338 OA
ATOM     21  N   LIG    1       26.205 -13.826   2.040  0.00  0.00    -0.081 NA
ENDBRANCH  13  19
ENDBRANCH   1  13
TORSDOF 4
ENDMDL
MODEL 7
REMARK VINA RESULT:      -2.1      4.060      7.282
REMARK  Name = *****
REMARK                            x       y       z     vdW  Elec       q    Type
REMARK                         _______ _______ _______ _____ _____    ______ ____
ROOT
ATOM      1  S   LIG    1       27.629 -13.928   3.098  0.00  0.00    +0.075 S 
ATOM      2  O   LIG    1       27.212 -14.452   1.813  0.00  0.00    -0.150 OA
ATOM      3  O   LIG    1       28.741 -13.015   3.235  0.00  0.00    -0.150 OA
ENDROOT
BRANCH   1   4
ATOM      4  C   LIG    1       26.209 -13.159   3.843  0.00  0.00    +0.109 A 
ATOM      5  C   LIG    1       26.177 -12.956   5.225  0.00  0.00    +0.030 A 
ATOM      6  C   LIG    1       25.049 -12.368   5.807  0.00  0.00    +0.024 A 
ATOM      7  C   LIG    1       23.986 -11.923   5.016  0.00  0.00    +0.025 A 
ATOM      8  C   LIG    1       24.022 -12.163   3.638  0.00  0.00    +0.024 A 
ATOM      9  C   LIG    1       25.140 -12.754   3.043  0.00  0.00    +0.030 A 
BRANCH   7  10
ATOM     10  N   LIG    1       22.811 -11.458   5.619  0.00  0.00    -0.358 N 
ATOM     11  H   LIG    1       22.333 -10.737   5.085  0.00  0.00    +0.142 HD
ATOM     12  H   LIG    1       22.177 -12.197   5.910  0.00  0.00    +0.142 HD
ENDBRANCH   7  10
ENDBRANCH   1   4
BRANCH   1  13
ATOM     13  N   LIG    1       27.899 -15.215   4.200  0.00  0.00    -0.183 N 
ATOM     14  H   LIG    1       28.861 -15.505   4.004  0.00  0.00    +0.177 HD
BRANCH  13  19
ATOM     15  C   LIG    1       25.730 -19.724   3.744  0.00  0.00    +0.069 C 
ATOM     16  C   LIG    1       26.110 -18.294   3.651  0.00  0.00    +0.085 A 
ATOM     17  C   LIG    1       27.245 -17.641   4.212  0.00  0.00    +0.035 A 
ATOM     18  C   LIG    1       28.355 -18.264   4.967  0.00  0.00    +0.051 C 
ATOM     19  C   LIG    1       27.057 -16.321   3.867  0.00  0.00    +0.240 A 
ATOM     20  O   LIG    1       25.958 -16.210   3.076  0.00  0.00    -0.338 OA
ATOM     21  N   LIG    1       25.349 -17.443   2.953  0.00  0.00    -0.081 NA
ENDBRANCH  13  19
ENDBRANCH   1  13
TORSDOF 4
ENDMDL
MODEL 8
REMARK VINA RESULT:      -2.0      3.821      5.204
REMARK  Name = *****
REMARK                            x       y       z     vdW  Elec       q    Type
REMARK                         _______ _______ _______ _____ _____    ______ ____
ROOT
ATOM      1  S   LIG    1       23.957 -15.157   3.924  0.00  0.00    +0.075 S 
ATOM      2  O   LIG    1       22.747 -14.542   3.413  0.00  0.00    -0.150 OA
ATOM      3  O   LIG    1       24.591 -14.713   5.145  0.00  0.00    -0.150 OA
ENDROOT
BRANCH   1   4
ATOM      4  C   LIG    1       23.638 -16.898   4.088  0.00  0.00    +0.109 A 
ATOM      5  C   LIG    1       22.419 -17.332   4.616  0.00  0.00    +0.030 A 
ATOM      6  C   LIG    1       22.182 -18.703   4.760  0.00  0.00    +0.024 A 
ATOM      7  C   LIG    1       23.120 -19.642   4.321  0.00  0.00    +0.025 A 
ATOM      8  C   LIG    1       24.347 -19.188   3.823  0.00  0.00    +0.024 A 
ATOM      9  C   LIG    1       24.601 -17.821   3.679  0.00  0.00    +0.030 A 
BRANCH   7  10
ATOM     10  N   LIG    1       22.929 -21.002   4.590  0.00  0.00    -0.358 N 
ATOM     11  H   LIG    1       23.490 -21.618   4.007  0.00  0.00    +0.142 HD
ATOM     12  H   LIG    1       23.001 -21.242   5.574  0.00  0.00    +0.142 HD
ENDBRANCH   7  10
ENDBRANCH   1   4
BRANCH   1  13
ATOM     13  N   LIG    1       25.167 -15.175   2.708  0.00  0.00    -0.183 N 
ATOM     14  H   LIG    1       25.324 -16.172   2.537  0.00  0.00    +0.177 HD
BRANCH  13  19
ATOM     15  C   LIG    1       28.990 -12.248   4.141  0.00  0.00    +0.069 C 
ATOM     16  C   LIG    1       28.071 -13.374   3.848  0.00  0.00    +0.085 A 
ATOM     17  C   LIG    1       26.832 -13.345   3.145  0.00  0.00    +0.035 A 
ATOM     18  C   LIG    1       26.206 -12.182   2.478  0.00  0.00    +0.051 C 
ATOM     19  C   LIG    1       26.387 -14.646   3.230  0.00  0.00    +0.240 A 
ATOM     20  O   LIG    1       27.331 -15.410   3.839  0.00  0.00    -0.338 OA
ATOM     21  N   LIG    1       28.381 -14.613   4.247  0.00  0.00    -0.081 NA
ENDBRANCH  13  19
ENDBRANCH   1  13
TORSDOF 4
ENDMDL
MODEL 9
REMARK VINA RESULT:      -1.8      2.714      3.966
REMARK  Name = *****
REMARK                            x       y       z     vdW  Elec       q    Type
REMARK                         _______ _______ _______ _____ _____    ______ ____
ROOT
ATOM      1  S   LIG    1       25.093 -20.818   4.894  0.00  0.00    +0.075 S 
ATOM      2  O   LIG    1       24.528 -21.370   3.678  0.00  0.00    -0.150 OA
ATOM      3  O   LIG    1       25.992 -21.572   5.738  0.00  0.00    -0.150 OA
ENDROOT
BRANCH   1   4
ATOM      4  C   LIG    1       25.911 -19.301   4.457  0.00  0.00    +0.109 A 
ATOM      5  C   LIG    1       27.190 -19.036   4.956  0.00  0.00    +0.030 A 
ATOM      6  C   LIG    1       27.820 -17.832   4.625  0.00  0.00    +0.024 A 
ATOM      7  C   LIG    1       27.216 -16.925   3.749  0.00  0.00    +0.025 A 
ATOM      8  C   LIG    1       25.924 -17.194   3.285  0.00  0.00    +0.024 A 
ATOM      9  C   LIG    1       25.278 -18.390   3.612  0.00  0.00    +0.030 A 
BRANCH   7  10
ATOM     10  N   LIG    1       27.795 -15.670   3.530  0.00  0.00    -0.358 N 
ATOM     11  H   LIG    1       28.771 -15.712   3.250  0.00  0.00    +0.142 HD
ATOM     12  H   LIG    1       27.252 -15.065   2.921  0.00  0.00    +0.142 HD
ENDBRANCH   7  10
ENDBRANCH   1   4
BRANCH   1  13
ATOM     13  N   LIG    1       23.842 -20.217   5.903  0.00  0.00    -0.183 N 
ATOM     14  H   LIG    1       23.739 -20.942   6.619  0.00  0.00    +0.177 HD
BRANCH  13  19
ATOM     15  C   LIG    1       19.810 -18.871   3.226  0.00  0.00    +0.069 C 
ATOM     16  C   LIG    1       20.838 -19.589   4.017  0.00  0.00    +0.085 A 
ATOM     17  C   LIG    1       21.999 -19.058   4.649  0.00  0.00    +0.035 A 
ATOM     18  C   LIG    1       22.413 -17.639   4.719  0.00  0.00    +0.051 C 
ATOM     19  C   LIG    1       22.613 -20.174   5.177  0.00  0.00    +0.240 A 
ATOM     20  O   LIG    1       21.829 -21.264   4.970  0.00  0.00    -0.338 OA
ATOM     21  N   LIG    1       20.723 -20.906   4.225  0.00  0.00    -0.081 NA
ENDBRANCH  13  19
ENDBRANCH   1  13
TORSDOF 4
ENDMDL
