MODEL 1
REMARK VINA RESULT:      -5.1      0.000      0.000
REMARK  Name = *****
REMARK                            x       y       z     vdW  Elec       q    Type
REMARK                         _______ _______ _______ _____ _____    ______ ____
ROOT
ATOM      1  C   LIG    1       27.887 -14.296   4.299  0.00  0.00    +0.059 C 
ATOM      2  C   LIG    1       26.377 -14.398   4.371  0.00  0.00    +0.037 C 
ATOM      3  C   LIG    1       27.173 -15.342   3.502  0.00  0.00    +0.029 C 
ENDROOT
BRANCH   2   4
ATOM      4  C   LIG    1       25.470 -13.354   3.760  0.00  0.00    -0.043 A 
ATOM      5  C   LIG    1       24.594 -12.599   4.560  0.00  0.00    +0.004 A 
ATOM      6  C   LIG    1       23.727 -11.654   4.005  0.00  0.00    +0.000 A 
ATOM      7  C   LIG    1       23.712 -11.447   2.630  0.00  0.00    +0.000 A 
ATOM      8  C   LIG    1       24.558 -12.190   1.812  0.00  0.00    +0.000 A 
ATOM      9  C   LIG    1       25.422 -13.134   2.373  0.00  0.00    +0.004 A 
ENDBRANCH   2   4
BRANCH   1  10
ATOM     10  N   LIG    1       28.563 -13.228   3.565  0.00  0.00    -0.327 NA
ATOM     11  H   LIG    1       28.397 -13.309   2.564  0.00  0.00    +0.118 HD
ATOM     12  H   LIG    1       28.220 -12.311   3.847  0.00  0.00    +0.118 HD
ENDBRANCH   1  10
TORSDOF 2
ENDMDL
MODEL 2
REMARK VINA RESULT:      -5.1      0.109      1.523
REMARK  Name = *****
REMARK                            x       y       z     vdW  Elec       q    Type
REMARK                         _______ _______ _______ _____ _____    ______ ____
ROOT
ATOM      1  C   LIG    1       27.952 -14.126   4.279  0.00  0.00    +0.059 C 
ATOM      2  C   LIG    1       26.452 -14.291   4.413  0.00  0.00    +0.037 C 
ATOM      3  C   LIG    1       27.258 -15.239   3.558  0.00  0.00    +0.029 C 
ENDROOT
BRANCH   2   4
ATOM      4  C   LIG    1       25.476 -13.317   3.791  0.00  0.00    -0.043 A 
ATOM      5  C   LIG    1       25.448 -13.112   2.400  0.00  0.00    +0.004 A 
ATOM      6  C   LIG    1       24.573 -12.192   1.815  0.00  0.00    +0.000 A 
ATOM      7  C   LIG    1       23.711 -11.447   2.612  0.00  0.00    +0.000 A 
ATOM      8  C   LIG    1       23.727 -11.620   3.993  0.00  0.00    +0.000 A 
ATOM      9  C   LIG    1       24.604 -12.541   4.572  0.00  0.00    +0.004 A 
ENDBRANCH   2   4
BRANCH   1  10
ATOM     10  N   LIG    1       28.551 -13.065   3.472  0.00  0.00    -0.327 NA
ATOM     11  H   LIG    1       28.203 -12.150   3.752  0.00  0.00    +0.118 HD
ATOM     12  H   LIG    1       29.564 -13.042   3.585  0.00  0.00    +0.118 HD
ENDBRANCH   1  10
TORSDOF 2
ENDMDL
MODEL 3
REMARK VINA RESULT:      -5.0      7.369      7.807
REMARK  Name = *****
REMARK                            x       y       z     vdW  Elec       q    Type
REMARK                         _______ _______ _______ _____ _____    ______ ____
ROOT
ATOM      1  C   LIG    1       27.719 -20.210   6.597  0.00  0.00    +0.059 C 
ATOM      2  C   LIG    1       26.297 -20.447   7.062  0.00  0.00    +0.037 C 
ATOM      3  C   LIG    1       27.305 -21.572   7.061  0.00  0.00    +0.029 C 
ENDROOT
BRANCH   2   4
ATOM      4  C   LIG    1       25.127 -20.448   6.104  0.00  0.00    -0.043 A 
ATOM      5  C   LIG    1       23.819 -20.688   6.559  0.00  0.00    +0.004 A 
ATOM      6  C   LIG    1       22.733 -20.724   5.680  0.00  0.00    +0.000 A 
ATOM      7  C   LIG    1       22.934 -20.529   4.318  0.00  0.00    +0.000 A 
ATOM      8  C   LIG    1       24.220 -20.303   3.837  0.00  0.00    +0.000 A 
ATOM      9  C   LIG    1       25.302 -20.269   4.721  0.00  0.00    +0.004 A 
ENDBRANCH   2   4
BRANCH   1  10
ATOM     10  N   LIG    1       28.063 -20.050   5.186  0.00  0.00    -0.327 NA
ATOM     11  H   LIG    1       27.231 -19.889   4.622  0.00  0.00    +0.118 HD
ATOM     12  H   LIG    1       28.675 -19.248   5.043  0.00  0.00    +0.118 HD
ENDBRANCH   1  10
TORSDOF 2
ENDMDL
MODEL 4
REMARK VINA RESULT:      -4.9      7.168      7.870
REMARK  Name = *****
REMARK                            x       y       z     vdW  Elec       q    Type
REMARK                         _______ _______ _______ _____ _____    ______ ____
ROOT
ATOM      1  C   LIG    1       27.731 -20.202   6.579  0.00  0.00    +0.059 C 
ATOM      2  C   LIG    1       26.318 -20.451   7.062  0.00  0.00    +0.037 C 
ATOM      3  C   LIG    1       27.330 -21.571   7.032  0.00  0.00    +0.029 C 
ENDROOT
BRANCH   2   4
ATOM      4  C   LIG    1       25.133 -20.446   6.122  0.00  0.00    -0.043 A 
ATOM      5  C   LIG    1       25.277 -20.054   4.780  0.00  0.00    +0.004 A 
ATOM      6  C   LIG    1       24.185 -20.014   3.908  0.00  0.00    +0.000 A 
ATOM      7  C   LIG    1       22.917 -20.359   4.365  0.00  0.00    +0.000 A 
ATOM      8  C   LIG    1       22.743 -20.738   5.693  0.00  0.00    +0.000 A 
ATOM      9  C   LIG    1       23.839 -20.775   6.559  0.00  0.00    +0.004 A 
ENDBRANCH   2   4
BRANCH   1  10
ATOM     10  N   LIG    1       28.053 -20.024   5.164  0.00  0.00    -0.327 NA
ATOM     11  H   LIG    1       27.479 -20.627   4.578  0.00  0.00    +0.118 HD
ATOM     12  H   LIG    1       27.878 -19.067   4.862  0.00  0.00    +0.118 HD
ENDBRANCH   1  10
TORSDOF 2
ENDMDL
MODEL 5
REMARK VINA RESULT:      -4.8      2.304      3.721
REMARK  Name = *****
REMARK                            x       y       z     vdW  Elec       q    Type
REMARK                         _______ _______ _______ _____ _____    ______ ____
ROOT
ATOM      1  C   LIG    1       23.758 -13.704   3.098  0.00  0.00    +0.059 C 
ATOM      2  C   LIG    1       24.932 -14.539   3.567  0.00  0.00    +0.037 C 
ATOM      3  C   LIG    1       23.727 -14.336   4.455  0.00  0.00    +0.029 C 
ENDROOT
BRANCH   2   4
ATOM      4  C   LIG    1       26.269 -13.925   3.914  0.00  0.00    -0.043 A 
ATOM      5  C   LIG    1       26.545 -13.485   5.221  0.00  0.00    +0.004 A 
ATOM      6  C   LIG    1       27.765 -12.886   5.548  0.00  0.00    +0.000 A 
ATOM      7  C   LIG    1       28.736 -12.705   4.570  0.00  0.00    +0.000 A 
ATOM      8  C   LIG    1       28.485 -13.119   3.265  0.00  0.00    +0.000 A 
ATOM      9  C   LIG    1       27.264 -13.716   2.943  0.00  0.00    +0.004 A 
ENDBRANCH   2   4
BRANCH   1  10
ATOM     10  N   LIG    1       23.816 -12.245   3.031  0.00  0.00    -0.327 NA
ATOM     11  H   LIG    1       23.323 -11.895   2.212  0.00  0.00    +0.118 HD
ATOM     12  H   LIG    1       23.374 -11.820   3.845  0.00  0.00    +0.118 HD
ENDBRANCH   1  10
TORSDOF 2
ENDMDL
MODEL 6
REMARK VINA RESULT:      -4.8      7.326      8.695
REMARK  Name = *****
REMARK                            x       y       z     vdW  Elec       q    Type
REMARK                         _______ _______ _______ _____ _____    ______ ____
ROOT
ATOM      1  C   LIG    1       23.152 -21.184   4.678  0.00  0.00    +0.059 C 
ATOM      2  C   LIG    1       23.871 -20.738   5.934  0.00  0.00    +0.037 C 
ATOM      3  C   LIG    1       23.091 -19.749   5.100  0.00  0.00    +0.029 C 
ENDROOT
BRANCH   2   4
ATOM      4  C   LIG    1       25.380 -20.669   6.016  0.00  0.00    -0.043 A 
ATOM      5  C   LIG    1       26.089 -21.438   6.954  0.00  0.00    +0.004 A 
ATOM      6  C   LIG    1       27.480 -21.360   7.062  0.00  0.00    +0.000 A 
ATOM      7  C   LIG    1       28.195 -20.500   6.235  0.00  0.00    +0.000 A 
ATOM      8  C   LIG    1       27.518 -19.716   5.306  0.00  0.00    +0.000 A 
ATOM      9  C   LIG    1       26.127 -19.799   5.203  0.00  0.00    +0.004 A 
ENDBRANCH   2   4
BRANCH   1  10
ATOM     10  N   LIG    1       23.863 -21.497   3.440  0.00  0.00    -0.327 NA
ATOM     11  H   LIG    1       23.850 -22.497   3.252  0.00  0.00    +0.118 HD
ATOM     12  H   LIG    1       23.429 -21.041   2.639  0.00  0.00    +0.118 HD
ENDBRANCH   1  10
TORSDOF 2
ENDMDL
MODEL 7
REMARK VINA RESULT:      -4.8      7.099      8.396
REMARK  Name = *****
REMARK                            x       y       z     vdW  Elec       q    Type
REMARK                         _______ _______ _______ _____ _____    ______ ____
ROOT
ATOM      1  C   LIG    1       22.395 -19.751   4.288  0.00  0.00    +0.059 C 
ATOM      2  C   LIG    1       23.456 -20.822   4.431  0.00  0.00    +0.037 C 
ATOM      3  C   LIG    1       22.168 -20.906   5.214  0.00  0.00    +0.029 C 
ENDROOT
BRANCH   2   4
ATOM      4  C   LIG    1       24.775 -20.561   5.125  0.00  0.00    -0.043 A 
ATOM      5  C   LIG    1       25.829 -19.915   4.456  0.00  0.00    +0.004 A 
ATOM      6  C   LIG    1       27.062 -19.697   5.075  0.00  0.00    +0.000 A 
ATOM      7  C   LIG    1       27.273 -20.130   6.380  0.00  0.00    +0.000 A 
ATOM      8  C   LIG    1       26.252 -20.785   7.061  0.00  0.00    +0.000 A 
ATOM      9  C   LIG    1       25.021 -21.001   6.437  0.00  0.00    +0.004 A 
ENDBRANCH   2   4
BRANCH   1  10
ATOM     10  N   LIG    1       22.540 -18.424   4.883  0.00  0.00    -0.327 NA
ATOM     11  H   LIG    1       23.053 -17.799   4.265  0.00  0.00    +0.118 HD
ATOM     12  H   LIG    1       21.632 -17.993   5.052  0.00  0.00    +0.118 HD
ENDBRANCH   1  10
TORSDOF 2
ENDMDL
MODEL 8
REMARK VINA RESULT:      -4.6      1.853      4.002
REMARK  Name = *****
REMARK                            x       y       z     vdW  Elec       q    Type
REMARK                         _______ _______ _______ _____ _____    ______ ____
ROOT
ATOM      1  C   LIG    1       23.500 -11.872   3.298  0.00  0.00    +0.059 C 
ATOM      2  C   LIG    1       23.890 -12.930   4.309  0.00  0.00    +0.037 C 
ATOM      3  C   LIG    1       23.875 -11.468   4.690  0.00  0.00    +0.029 C 
ENDROOT
BRANCH   2   4
ATOM      4  C   LIG    1       25.191 -13.696   4.211  0.00  0.00    -0.043 A 
ATOM      5  C   LIG    1       26.337 -13.265   4.901  0.00  0.00    +0.004 A 
ATOM      6  C   LIG    1       27.553 -13.945   4.794  0.00  0.00    +0.000 A 
ATOM      7  C   LIG    1       27.652 -15.072   3.984  0.00  0.00    +0.000 A 
ATOM      8  C   LIG    1       26.536 -15.513   3.279  0.00  0.00    +0.000 A 
ATOM      9  C   LIG    1       25.323 -14.828   3.389  0.00  0.00    +0.004 A 
ENDBRANCH   2   4
BRANCH   1  10
ATOM     10  N   LIG    1       24.389 -11.464   2.212  0.00  0.00    -0.327 NA
ATOM     11  H   LIG    1       24.465 -12.194   1.506  0.00  0.00    +0.118 HD
ATOM     12  H   LIG    1       24.039 -10.632   1.739  0.00  0.00    +0.118 HD
ENDBRANCH   1  10
TORSDOF 2
ENDMDL
MODEL 9
REMARK VINA RESULT:      -4.5      7.458      7.950
REMARK  Name = *****
REMARK                            x       y       z     vdW  Elec       q    Type
REMARK                         _______ _______ _______ _____ _____    ______ ____
ROOT
ATOM      1  C   LIG    1       29.259 -20.358   6.145  0.00  0.00    +0.059 C 
ATOM      2  C   LIG    1       28.102 -19.575   5.558  0.00  0.00    +0.037 C 
ATOM      3  C   LIG    1       28.863 -19.048   6.752  0.00  0.00    +0.029 C 
ENDROOT
BRANCH   2   4
ATOM      4  C   LIG    1       26.668 -20.038   5.690  0.00  0.00    -0.043 A 
ATOM      5  C   LIG    1       26.153 -20.450   6.931  0.00  0.00    +0.004 A 
ATOM      6  C   LIG    1       24.839 -20.910   7.061  0.00  0.00    +0.000 A 
ATOM      7  C   LIG    1       24.012 -20.977   5.946  0.00  0.00    +0.000 A 
ATOM      8  C   LIG    1       24.500 -20.589   4.702  0.00  0.00    +0.000 A 
ATOM      9  C   LIG    1       25.814 -20.130   4.578  0.00  0.00    +0.004 A 
ENDBRANCH   2   4
BRANCH   1  10
ATOM     10  N   LIG    1       29.059 -21.564   6.946  0.00  0.00    -0.327 NA
ATOM     11  H   LIG    1       29.915 -22.112   7.003  0.00  0.00    +0.118 HD
ATOM     12  H   LIG    1       28.792 -21.333   7.902  0.00  0.00    +0.118 HD
ENDBRANCH   1  10
TORSDOF 2
ENDMDL
