MODEL 1
REMARK VINA RESULT:      -9.9      0.000      0.000
REMARK  Name = *****
REMARK                            x       y       z     vdW  Elec       q    Type
REMARK                         _______ _______ _______ _____ _____    ______ ____
ROOT
ATOM      1  C   LIG    1       26.544 -21.273   7.584  0.00  0.00    +0.148 A 
ATOM      2  O   LIG    1       26.596 -22.584   7.207  0.00  0.00    -0.454 OA
ATOM      3  C   LIG    1       25.313 -23.044   7.131  0.00  0.00    +0.136 A 
ATOM      4  C   LIG    1       24.438 -22.029   7.457  0.00  0.00    +0.050 A 
ATOM      5  C   LIG    1       25.230 -20.888   7.742  0.00  0.00    +0.051 A 
ENDROOT
BRANCH   3   6
ATOM      6  C   LIG    1       25.166 -24.442   6.750  0.00  0.00    +0.018 A 
ATOM      7  C   LIG    1       23.969 -24.905   6.183  0.00  0.00    +0.018 A 
ATOM      8  C   LIG    1       23.824 -26.248   5.819  0.00  0.00    +0.085 A 
ATOM      9  C   LIG    1       24.890 -27.135   6.015  0.00  0.00    +0.273 A 
ATOM     10  C   LIG    1       26.093 -26.689   6.571  0.00  0.00    +0.085 A 
ATOM     11  C   LIG    1       26.222 -25.347   6.940  0.00  0.00    +0.018 A 
BRANCH   9  12
ATOM     12  N   LIG    1       24.745 -28.545   5.633  0.00  0.00    +0.080 N 
ATOM     13  O   LIG    1       25.708 -29.092   5.076  0.00  0.00    -0.576 OA
ATOM     14  O   LIG    1       23.671 -29.104   5.892  0.00  0.00    +0.041 OA
ENDBRANCH   9  12
ENDBRANCH   3   6
BRANCH   1  16
ATOM     15  N   LIG    1       28.879 -21.233   8.049  0.00  0.00    -0.180 NA
ATOM     16  C   LIG    1       27.794 -20.591   7.747  0.00  0.00    +0.176 C 
BRANCH  15  21
ATOM     17  O   LIG    1       32.199 -17.777   8.141  0.00  0.00    -0.272 OA
ATOM     18  C   LIG    1       31.584 -18.816   8.333  0.00  0.00    +0.260 C 
ATOM     19  N   LIG    1       31.973 -19.847   9.177  0.00  0.00    -0.129 NA
ATOM     20  C   LIG    1       31.048 -20.737   9.034  0.00  0.00    +0.295 C 
ATOM     21  N   LIG    1       30.031 -20.503   8.155  0.00  0.00    -0.170 N 
ATOM     22  C   LIG    1       30.242 -19.150   7.652  0.00  0.00    +0.234 C 
BRANCH  20  23
ATOM     23  O   LIG    1       31.001 -21.895   9.695  0.00  0.00    -0.482 OA
ATOM     24  H   LIG    1       30.489 -22.510   9.141  0.00  0.00    +0.295 HD
ENDBRANCH  20  23
ENDBRANCH  15  21
ENDBRANCH   1  16
TORSDOF 5
ENDMDL
MODEL 2
REMARK VINA RESULT:      -9.7      2.894      4.395
REMARK  Name = *****
REMARK                            x       y       z     vdW  Elec       q    Type
REMARK                         _______ _______ _______ _____ _____    ______ ____
ROOT
ATOM      1  C   LIG    1       29.296 -19.110   7.498  0.00  0.00    +0.148 A 
ATOM      2  O   LIG    1       28.304 -20.019   7.726  0.00  0.00    -0.454 OA
ATOM      3  C   LIG    1       27.736 -20.322   6.522  0.00  0.00    +0.136 A 
ATOM      4  C   LIG    1       28.364 -19.609   5.523  0.00  0.00    +0.050 A 
ATOM      5  C   LIG    1       29.372 -18.834   6.150  0.00  0.00    +0.051 A 
ENDROOT
BRANCH   3   6
ATOM      6  C   LIG    1       26.637 -21.277   6.566  0.00  0.00    +0.018 A 
ATOM      7  C   LIG    1       26.755 -22.467   7.301  0.00  0.00    +0.018 A 
ATOM      8  C   LIG    1       25.703 -23.388   7.342  0.00  0.00    +0.085 A 
ATOM      9  C   LIG    1       24.517 -23.112   6.650  0.00  0.00    +0.273 A 
ATOM     10  C   LIG    1       24.379 -21.928   5.919  0.00  0.00    +0.085 A 
ATOM     11  C   LIG    1       25.441 -21.020   5.877  0.00  0.00    +0.018 A 
BRANCH   9  12
ATOM     12  N   LIG    1       23.408 -24.073   6.691  0.00  0.00    +0.080 N 
ATOM     13  O   LIG    1       23.684 -25.275   6.566  0.00  0.00    -0.576 OA
ATOM     14  O   LIG    1       22.264 -23.625   6.849  0.00  0.00    +0.041 OA
ENDBRANCH   9  12
ENDBRANCH   3   6
BRANCH   1  16
ATOM     15  N   LIG    1       30.333 -17.381   8.765  0.00  0.00    -0.180 NA
ATOM     16  C   LIG    1       30.019 -18.632   8.641  0.00  0.00    +0.176 C 
BRANCH  15  21
ATOM     17  O   LIG    1       32.136 -17.048  13.193  0.00  0.00    -0.272 OA
ATOM     18  C   LIG    1       31.964 -16.943  11.988  0.00  0.00    +0.260 C 
ATOM     19  N   LIG    1       32.831 -16.330  11.093  0.00  0.00    -0.129 NA
ATOM     20  C   LIG    1       32.229 -16.425   9.954  0.00  0.00    +0.295 C 
ATOM     21  N   LIG    1       30.997 -17.011   9.902  0.00  0.00    -0.170 N 
ATOM     22  C   LIG    1       30.726 -17.494  11.252  0.00  0.00    +0.234 C 
BRANCH  20  23
ATOM     23  O   LIG    1       32.726 -15.993   8.795  0.00  0.00    -0.482 OA
ATOM     24  H   LIG    1       33.150 -16.760   8.372  0.00  0.00    +0.295 HD
ENDBRANCH  20  23
ENDBRANCH  15  21
ENDBRANCH   1  16
TORSDOF 5
ENDMDL
MODEL 3
REMARK VINA RESULT:      -9.3      1.555      8.657
REMARK  Name = *****
REMARK                            x       y       z     vdW  Elec       q    Type
REMARK                         _______ _______ _______ _____ _____    ______ ____
ROOT
ATOM      1  C   LIG    1       25.341 -22.982   6.100  0.00  0.00    +0.148 A 
ATOM      2  O   LIG    1       26.566 -22.626   6.584  0.00  0.00    -0.454 OA
ATOM      3  C   LIG    1       26.662 -21.266   6.508  0.00  0.00    +0.136 A 
ATOM      4  C   LIG    1       25.499 -20.750   5.978  0.00  0.00    +0.050 A 
ATOM      5  C   LIG    1       24.646 -21.853   5.721  0.00  0.00    +0.051 A 
ENDROOT
BRANCH   3   6
ATOM      6  C   LIG    1       27.919 -20.696   6.974  0.00  0.00    +0.018 A 
ATOM      7  C   LIG    1       28.656 -21.325   7.988  0.00  0.00    +0.018 A 
ATOM      8  C   LIG    1       29.862 -20.777   8.439  0.00  0.00    +0.085 A 
ATOM      9  C   LIG    1       30.341 -19.595   7.862  0.00  0.00    +0.273 A 
ATOM     10  C   LIG    1       29.623 -18.958   6.845  0.00  0.00    +0.085 A 
ATOM     11  C   LIG    1       28.415 -19.509   6.410  0.00  0.00    +0.018 A 
BRANCH   9  12
ATOM     12  N   LIG    1       31.606 -19.016   8.329  0.00  0.00    +0.080 N 
ATOM     13  O   LIG    1       32.244 -19.643   9.187  0.00  0.00    -0.576 OA
ATOM     14  O   LIG    1       31.962 -17.937   7.836  0.00  0.00    +0.041 OA
ENDBRANCH   9  12
ENDBRANCH   3   6
BRANCH   1  16
ATOM     15  N   LIG    1       25.949 -25.268   5.831  0.00  0.00    -0.180 NA
ATOM     16  C   LIG    1       25.033 -24.382   6.068  0.00  0.00    +0.176 C 
BRANCH  15  21
ATOM     17  O   LIG    1       23.533 -29.406   5.928  0.00  0.00    -0.272 OA
ATOM     18  C   LIG    1       24.394 -28.557   5.755  0.00  0.00    +0.260 C 
ATOM     19  N   LIG    1       25.617 -28.755   5.127  0.00  0.00    -0.129 NA
ATOM     20  C   LIG    1       26.202 -27.607   5.206  0.00  0.00    +0.295 C 
ATOM     21  N   LIG    1       25.569 -26.583   5.850  0.00  0.00    -0.170 N 
ATOM     22  C   LIG    1       24.252 -27.093   6.214  0.00  0.00    +0.234 C 
BRANCH  20  23
ATOM     23  O   LIG    1       27.401 -27.329   4.693  0.00  0.00    -0.482 OA
ATOM     24  H   LIG    1       28.053 -27.800   5.242  0.00  0.00    +0.295 HD
ENDBRANCH  20  23
ENDBRANCH  15  21
ENDBRANCH   1  16
TORSDOF 5
ENDMDL
MODEL 4
REMARK VINA RESULT:      -9.2      1.551      8.618
REMARK  Name = *****
REMARK                            x       y       z     vdW  Elec       q    Type
REMARK                         _______ _______ _______ _____ _____    ______ ____
ROOT
ATOM      1  C   LIG    1       25.333 -22.989   6.081  0.00  0.00    +0.148 A 
ATOM      2  O   LIG    1       26.561 -22.636   6.560  0.00  0.00    -0.454 OA
ATOM      3  C   LIG    1       26.653 -21.275   6.502  0.00  0.00    +0.136 A 
ATOM      4  C   LIG    1       25.483 -20.755   5.989  0.00  0.00    +0.050 A 
ATOM      5  C   LIG    1       24.632 -21.856   5.724  0.00  0.00    +0.051 A 
ENDROOT
BRANCH   3   6
ATOM      6  C   LIG    1       27.912 -20.708   6.965  0.00  0.00    +0.018 A 
ATOM      7  C   LIG    1       28.413 -19.526   6.399  0.00  0.00    +0.018 A 
ATOM      8  C   LIG    1       29.623 -18.981   6.840  0.00  0.00    +0.085 A 
ATOM      9  C   LIG    1       30.335 -19.618   7.864  0.00  0.00    +0.273 A 
ATOM     10  C   LIG    1       29.848 -20.793   8.444  0.00  0.00    +0.085 A 
ATOM     11  C   LIG    1       28.642 -21.333   7.989  0.00  0.00    +0.018 A 
BRANCH   9  12
ATOM     12  N   LIG    1       31.605 -19.050   8.332  0.00  0.00    +0.080 N 
ATOM     13  O   LIG    1       31.964 -17.967   7.849  0.00  0.00    -0.576 OA
ATOM     14  O   LIG    1       32.241 -19.686   9.183  0.00  0.00    +0.041 OA
ENDBRANCH   9  12
ENDBRANCH   3   6
BRANCH   1  16
ATOM     15  N   LIG    1       25.960 -25.276   5.883  0.00  0.00    -0.180 NA
ATOM     16  C   LIG    1       25.028 -24.389   6.032  0.00  0.00    +0.176 C 
BRANCH  15  21
ATOM     17  O   LIG    1       23.541 -29.414   5.907  0.00  0.00    -0.272 OA
ATOM     18  C   LIG    1       24.403 -28.562   5.747  0.00  0.00    +0.260 C 
ATOM     19  N   LIG    1       25.623 -28.749   5.112  0.00  0.00    -0.129 NA
ATOM     20  C   LIG    1       26.210 -27.602   5.211  0.00  0.00    +0.295 C 
ATOM     21  N   LIG    1       25.580 -26.591   5.877  0.00  0.00    -0.170 N 
ATOM     22  C   LIG    1       24.264 -27.107   6.236  0.00  0.00    +0.234 C 
BRANCH  20  23
ATOM     23  O   LIG    1       27.408 -27.316   4.701  0.00  0.00    -0.482 OA
ATOM     24  H   LIG    1       27.598 -28.004   4.038  0.00  0.00    +0.295 HD
ENDBRANCH  20  23
ENDBRANCH  15  21
ENDBRANCH   1  16
TORSDOF 5
ENDMDL
MODEL 5
REMARK VINA RESULT:      -9.1      1.320      1.726
REMARK  Name = *****
REMARK                            x       y       z     vdW  Elec       q    Type
REMARK                         _______ _______ _______ _____ _____    ______ ____
ROOT
ATOM      1  C   LIG    1       26.391 -21.473   6.757  0.00  0.00    +0.148 A 
ATOM      2  O   LIG    1       26.437 -22.835   6.819  0.00  0.00    -0.454 OA
ATOM      3  C   LIG    1       25.303 -23.315   6.229  0.00  0.00    +0.136 A 
ATOM      4  C   LIG    1       24.531 -22.260   5.788  0.00  0.00    +0.050 A 
ATOM      5  C   LIG    1       25.234 -21.076   6.121  0.00  0.00    +0.051 A 
ENDROOT
BRANCH   3   6
ATOM      6  C   LIG    1       25.167 -24.764   6.211  0.00  0.00    +0.018 A 
ATOM      7  C   LIG    1       24.197 -25.380   5.405  0.00  0.00    +0.018 A 
ATOM      8  C   LIG    1       24.061 -26.772   5.388  0.00  0.00    +0.085 A 
ATOM      9  C   LIG    1       24.912 -27.558   6.176  0.00  0.00    +0.273 A 
ATOM     10  C   LIG    1       25.889 -26.962   6.979  0.00  0.00    +0.085 A 
ATOM     11  C   LIG    1       26.008 -25.570   6.996  0.00  0.00    +0.018 A 
BRANCH   9  12
ATOM     12  N   LIG    1       24.777 -29.019   6.161  0.00  0.00    +0.080 N 
ATOM     13  O   LIG    1       25.545 -29.660   5.430  0.00  0.00    -0.576 OA
ATOM     14  O   LIG    1       23.904 -29.524   6.880  0.00  0.00    +0.041 OA
ENDBRANCH   9  12
ENDBRANCH   3   6
BRANCH   1  16
ATOM     15  N   LIG    1       28.569 -20.515   6.675  0.00  0.00    -0.180 NA
ATOM     16  C   LIG    1       27.485 -20.755   7.343  0.00  0.00    +0.176 C 
BRANCH  15  21
ATOM     17  O   LIG    1       32.264 -19.052   9.354  0.00  0.00    -0.272 OA
ATOM     18  C   LIG    1       31.409 -19.137   8.485  0.00  0.00    +0.260 C 
ATOM     19  N   LIG    1       31.274 -18.293   7.391  0.00  0.00    -0.129 NA
ATOM     20  C   LIG    1       30.229 -18.737   6.777  0.00  0.00    +0.295 C 
ATOM     21  N   LIG    1       29.549 -19.797   7.305  0.00  0.00    -0.170 N 
ATOM     22  C   LIG    1       30.320 -20.228   8.465  0.00  0.00    +0.234 C 
BRANCH  20  23
ATOM     23  O   LIG    1       29.749 -18.237   5.638  0.00  0.00    -0.482 OA
ATOM     24  H   LIG    1       28.820 -17.999   5.809  0.00  0.00    +0.295 HD
ENDBRANCH  20  23
ENDBRANCH  15  21
ENDBRANCH   1  16
TORSDOF 5
ENDMDL
MODEL 6
REMARK VINA RESULT:      -8.2      2.190      8.536
REMARK  Name = *****
REMARK                            x       y       z     vdW  Elec       q    Type
REMARK                         _______ _______ _______ _____ _____    ______ ____
ROOT
ATOM      1  C   LIG    1       24.149 -24.564   6.492  0.00  0.00    +0.148 A 
ATOM      2  O   LIG    1       25.348 -23.916   6.427  0.00  0.00    -0.454 OA
ATOM      3  C   LIG    1       25.112 -22.586   6.624  0.00  0.00    +0.136 A 
ATOM      4  C   LIG    1       23.762 -22.381   6.817  0.00  0.00    +0.050 A 
ATOM      5  C   LIG    1       23.144 -23.654   6.739  0.00  0.00    +0.051 A 
ENDROOT
BRANCH   3   6
ATOM      6  C   LIG    1       26.284 -21.723   6.576  0.00  0.00    +0.018 A 
ATOM      7  C   LIG    1       26.340 -20.643   5.683  0.00  0.00    +0.018 A 
ATOM      8  C   LIG    1       27.466 -19.814   5.633  0.00  0.00    +0.085 A 
ATOM      9  C   LIG    1       28.543 -20.062   6.492  0.00  0.00    +0.273 A 
ATOM     10  C   LIG    1       28.503 -21.130   7.394  0.00  0.00    +0.085 A 
ATOM     11  C   LIG    1       27.376 -21.956   7.428  0.00  0.00    +0.018 A 
BRANCH   9  12
ATOM     12  N   LIG    1       29.727 -19.195   6.446  0.00  0.00    +0.080 N 
ATOM     13  O   LIG    1       30.775 -19.627   6.947  0.00  0.00    -0.576 OA
ATOM     14  O   LIG    1       29.607 -18.085   5.909  0.00  0.00    +0.041 OA
ENDBRANCH   9  12
ENDBRANCH   3   6
BRANCH   1  16
ATOM     15  N   LIG    1       25.180 -26.705   6.638  0.00  0.00    -0.180 NA
ATOM     16  C   LIG    1       24.162 -25.983   6.290  0.00  0.00    +0.176 C 
BRANCH  15  21
ATOM     17  O   LIG    1       25.226 -31.146   4.836  0.00  0.00    -0.272 OA
ATOM     18  C   LIG    1       25.253 -30.191   5.598  0.00  0.00    +0.260 C 
ATOM     19  N   LIG    1       25.456 -30.251   6.970  0.00  0.00    -0.129 NA
ATOM     20  C   LIG    1       25.369 -29.022   7.357  0.00  0.00    +0.295 C 
ATOM     21  N   LIG    1       25.091 -28.055   6.435  0.00  0.00    -0.170 N 
ATOM     22  C   LIG    1       25.065 -28.730   5.142  0.00  0.00    +0.234 C 
BRANCH  20  23
ATOM     23  O   LIG    1       25.537 -28.608   8.613  0.00  0.00    -0.482 OA
ATOM     24  H   LIG    1       24.838 -27.952   8.785  0.00  0.00    +0.295 HD
ENDBRANCH  20  23
ENDBRANCH  15  21
ENDBRANCH   1  16
TORSDOF 5
ENDMDL
MODEL 7
REMARK VINA RESULT:      -8.0      1.860      2.732
REMARK  Name = *****
REMARK                            x       y       z     vdW  Elec       q    Type
REMARK                         _______ _______ _______ _____ _____    ______ ____
ROOT
ATOM      1  C   LIG    1       26.172 -22.981   6.898  0.00  0.00    +0.148 A 
ATOM      2  O   LIG    1       26.368 -24.316   6.700  0.00  0.00    -0.454 OA
ATOM      3  C   LIG    1       25.141 -24.903   6.586  0.00  0.00    +0.136 A 
ATOM      4  C   LIG    1       24.157 -23.944   6.709  0.00  0.00    +0.050 A 
ATOM      5  C   LIG    1       24.820 -22.706   6.903  0.00  0.00    +0.051 A 
ENDROOT
BRANCH   3   6
ATOM      6  C   LIG    1       25.148 -26.345   6.380  0.00  0.00    +0.018 A 
ATOM      7  C   LIG    1       25.887 -27.183   7.228  0.00  0.00    +0.018 A 
ATOM      8  C   LIG    1       25.898 -28.568   7.031  0.00  0.00    +0.085 A 
ATOM      9  C   LIG    1       25.153 -29.122   5.982  0.00  0.00    +0.273 A 
ATOM     10  C   LIG    1       24.404 -28.302   5.132  0.00  0.00    +0.085 A 
ATOM     11  C   LIG    1       24.409 -26.919   5.333  0.00  0.00    +0.018 A 
BRANCH   9  12
ATOM     12  N   LIG    1       25.158 -30.574   5.771  0.00  0.00    +0.080 N 
ATOM     13  O   LIG    1       24.586 -31.280   6.614  0.00  0.00    -0.576 OA
ATOM     14  O   LIG    1       25.733 -31.007   4.763  0.00  0.00    +0.041 OA
ENDBRANCH   9  12
ENDBRANCH   3   6
BRANCH   1  16
ATOM     15  N   LIG    1       27.403 -20.969   6.577  0.00  0.00    -0.180 NA
ATOM     16  C   LIG    1       27.340 -22.167   7.067  0.00  0.00    +0.176 C 
BRANCH  15  21
ATOM     17  O   LIG    1       31.759 -19.475   7.905  0.00  0.00    -0.272 OA
ATOM     18  C   LIG    1       30.687 -19.595   7.331  0.00  0.00    +0.260 C 
ATOM     19  N   LIG    1       30.268 -18.864   6.228  0.00  0.00    -0.129 NA
ATOM     20  C   LIG    1       29.077 -19.302   5.992  0.00  0.00    +0.295 C 
ATOM     21  N   LIG    1       28.545 -20.253   6.813  0.00  0.00    -0.170 N 
ATOM     22  C   LIG    1       29.604 -20.609   7.751  0.00  0.00    +0.234 C 
BRANCH  20  23
ATOM     23  O   LIG    1       28.304 -18.894   4.984  0.00  0.00    -0.482 OA
ATOM     24  H   LIG    1       28.245 -17.925   5.054  0.00  0.00    +0.295 HD
ENDBRANCH  20  23
ENDBRANCH  15  21
ENDBRANCH   1  16
TORSDOF 5
ENDMDL
MODEL 8
REMARK VINA RESULT:      -7.8      4.044     10.304
REMARK  Name = *****
REMARK                            x       y       z     vdW  Elec       q    Type
REMARK                         _______ _______ _______ _____ _____    ______ ____
ROOT
ATOM      1  C   LIG    1       24.662 -28.539   5.906  0.00  0.00    +0.148 A 
ATOM      2  O   LIG    1       24.369 -27.350   6.507  0.00  0.00    -0.454 OA
ATOM      3  C   LIG    1       25.064 -26.373   5.854  0.00  0.00    +0.136 A 
ATOM      4  C   LIG    1       25.801 -26.936   4.833  0.00  0.00    +0.050 A 
ATOM      5  C   LIG    1       25.537 -28.328   4.862  0.00  0.00    +0.051 A 
ENDROOT
BRANCH   3   6
ATOM      6  C   LIG    1       24.886 -25.022   6.367  0.00  0.00    +0.018 A 
ATOM      7  C   LIG    1       25.989 -24.274   6.805  0.00  0.00    +0.018 A 
ATOM      8  C   LIG    1       25.821 -22.977   7.301  0.00  0.00    +0.085 A 
ATOM      9  C   LIG    1       24.538 -22.417   7.349  0.00  0.00    +0.273 A 
ATOM     10  C   LIG    1       23.428 -23.145   6.910  0.00  0.00    +0.085 A 
ATOM     11  C   LIG    1       23.607 -24.444   6.426  0.00  0.00    +0.018 A 
BRANCH   9  12
ATOM     12  N   LIG    1       24.355 -21.056   7.866  0.00  0.00    +0.080 N 
ATOM     13  O   LIG    1       23.344 -20.436   7.507  0.00  0.00    -0.576 OA
ATOM     14  O   LIG    1       25.220 -20.609   8.631  0.00  0.00    +0.041 OA
ENDBRANCH   9  12
ENDBRANCH   3   6
BRANCH   1  16
ATOM     15  N   LIG    1       24.633 -30.870   6.390  0.00  0.00    -0.180 NA
ATOM     16  C   LIG    1       24.049 -29.715   6.452  0.00  0.00    +0.176 C 
BRANCH  15  21
ATOM     17  O   LIG    1       22.221 -33.825   9.292  0.00  0.00    -0.272 OA
ATOM     18  C   LIG    1       22.709 -33.292   8.307  0.00  0.00    +0.260 C 
ATOM     19  N   LIG    1       22.509 -33.680   6.989  0.00  0.00    -0.129 NA
ATOM     20  C   LIG    1       23.240 -32.863   6.305  0.00  0.00    +0.295 C 
ATOM     21  N   LIG    1       23.988 -31.931   6.964  0.00  0.00    -0.170 N 
ATOM     22  C   LIG    1       23.646 -32.069   8.375  0.00  0.00    +0.234 C 
BRANCH  20  23
ATOM     23  O   LIG    1       23.322 -32.852   4.974  0.00  0.00    -0.482 OA
ATOM     24  H   LIG    1       23.779 -32.027   4.732  0.00  0.00    +0.295 HD
ENDBRANCH  20  23
ENDBRANCH  15  21
ENDBRANCH   1  16
TORSDOF 5
ENDMDL
MODEL 9
REMARK VINA RESULT:      -7.8      4.427      5.318
REMARK  Name = *****
REMARK                            x       y       z     vdW  Elec       q    Type
REMARK                         _______ _______ _______ _____ _____    ______ ____
ROOT
ATOM      1  C   LIG    1       28.982 -20.197   7.735  0.00  0.00    +0.148 A 
ATOM      2  O   LIG    1       27.781 -19.778   7.242  0.00  0.00    -0.454 OA
ATOM      3  C   LIG    1       27.090 -20.885   6.839  0.00  0.00    +0.136 A 
ATOM      4  C   LIG    1       27.847 -22.013   7.075  0.00  0.00    +0.050 A 
ATOM      5  C   LIG    1       29.062 -21.571   7.658  0.00  0.00    +0.051 A 
ENDROOT
BRANCH   3   6
ATOM      6  C   LIG    1       25.775 -20.634   6.266  0.00  0.00    +0.018 A 
ATOM      7  C   LIG    1       24.615 -20.832   7.030  0.00  0.00    +0.018 A 
ATOM      8  C   LIG    1       23.350 -20.595   6.481  0.00  0.00    +0.085 A 
ATOM      9  C   LIG    1       23.244 -20.144   5.160  0.00  0.00    +0.273 A 
ATOM     10  C   LIG    1       24.390 -19.934   4.386  0.00  0.00    +0.085 A 
ATOM     11  C   LIG    1       25.648 -20.184   4.942  0.00  0.00    +0.018 A 
BRANCH   9  12
ATOM     12  N   LIG    1       21.920 -19.891   4.579  0.00  0.00    +0.080 N 
ATOM     13  O   LIG    1       21.100 -20.820   4.589  0.00  0.00    -0.576 OA
ATOM     14  O   LIG    1       21.701 -18.764   4.114  0.00  0.00    +0.041 OA
ENDBRANCH   9  12
ENDBRANCH   3   6
BRANCH   1  16
ATOM     15  N   LIG    1       29.864 -18.776   9.430  0.00  0.00    -0.180 NA
ATOM     16  C   LIG    1       29.885 -19.185   8.200  0.00  0.00    +0.176 C 
BRANCH  15  21
ATOM     17  O   LIG    1       32.599 -15.611  11.768  0.00  0.00    -0.272 OA
ATOM     18  C   LIG    1       32.179 -16.419  10.954  0.00  0.00    +0.260 C 
ATOM     19  N   LIG    1       32.875 -16.901   9.853  0.00  0.00    -0.129 NA
ATOM     20  C   LIG    1       32.037 -17.691   9.270  0.00  0.00    +0.295 C 
ATOM     21  N   LIG    1       30.783 -17.830   9.792  0.00  0.00    -0.170 N 
ATOM     22  C   LIG    1       30.775 -17.051  11.026  0.00  0.00    +0.234 C 
BRANCH  20  23
ATOM     23  O   LIG    1       32.302 -18.405   8.176  0.00  0.00    -0.482 OA
ATOM     24  H   LIG    1       32.427 -19.325   8.468  0.00  0.00    +0.295 HD
ENDBRANCH  20  23
ENDBRANCH  15  21
ENDBRANCH   1  16
TORSDOF 5
ENDMDL
