MODEL 1
REMARK VINA RESULT:      -8.7      0.000      0.000
REMARK  Name = *****
REMARK                            x       y       z     vdW  Elec       q    Type
REMARK                         _______ _______ _______ _____ _____    ______ ____
ROOT
ATOM      1  C   LIG    1       27.852 -19.572   5.429  0.00  0.00    +0.138 C 
ATOM      2  N   LIG    1       26.935 -20.296   6.299  0.00  0.00    -0.272 N 
ATOM      3  C   LIG    1       27.376 -20.543   7.605  0.00  0.00    +0.241 C 
ATOM      4  O   LIG    1       28.508 -20.229   7.989  0.00  0.00    -0.273 OA
ATOM      5  C   LIG    1       26.366 -21.129   8.582  0.00  0.00    +0.238 C 
ATOM      6  N   LIG    1       26.092 -22.515   8.220  0.00  0.00    -0.273 NA
ATOM      7  C   LIG    1       25.413 -22.736   7.145  0.00  0.00    +0.075 C 
ATOM      8  C   LIG    1       24.839 -21.659   6.285  0.00  0.00    +0.023 A 
ATOM      9  C   LIG    1       23.505 -21.817   5.869  0.00  0.00    +0.032 A 
ATOM     10  C   LIG    1       22.941 -20.917   4.973  0.00  0.00    +0.042 A 
ATOM     11 CL   LIG    1       21.315 -21.125   4.457  0.00  0.00    -0.084 Cl
ATOM     12  C   LIG    1       23.692 -19.857   4.484  0.00  0.00    +0.022 A 
ATOM     13  C   LIG    1       25.011 -19.683   4.916  0.00  0.00    +0.025 A 
ATOM     14  C   LIG    1       25.604 -20.559   5.845  0.00  0.00    +0.045 A 
ENDROOT
BRANCH   7  15
ATOM     15  C   LIG    1       25.192 -24.167   6.755  0.00  0.00    +0.001 A 
ATOM     16  C   LIG    1       23.910 -24.652   6.462  0.00  0.00    +0.010 A 
ATOM     17  C   LIG    1       23.738 -25.991   6.100  0.00  0.00    +0.001 A 
ATOM     18  C   LIG    1       24.840 -26.841   6.019  0.00  0.00    +0.000 A 
ATOM     19  C   LIG    1       26.118 -26.357   6.291  0.00  0.00    +0.001 A 
ATOM     20  C   LIG    1       26.296 -25.021   6.653  0.00  0.00    +0.010 A 
ENDBRANCH   7  15
TORSDOF 1
ENDMDL
MODEL 2
REMARK VINA RESULT:      -7.7      2.937      5.721
REMARK  Name = *****
REMARK                            x       y       z     vdW  Elec       q    Type
REMARK                         _______ _______ _______ _____ _____    ______ ____
ROOT
ATOM      1  C   LIG    1       25.904 -25.231   5.716  0.00  0.00    +0.138 C 
ATOM      2  N   LIG    1       25.139 -24.130   6.285  0.00  0.00    -0.272 N 
ATOM      3  C   LIG    1       23.783 -24.372   6.533  0.00  0.00    +0.241 C 
ATOM      4  O   LIG    1       23.237 -25.437   6.225  0.00  0.00    -0.273 OA
ATOM      5  C   LIG    1       23.012 -23.306   7.298  0.00  0.00    +0.238 C 
ATOM      6  N   LIG    1       22.832 -22.135   6.445  0.00  0.00    -0.273 NA
ATOM      7  C   LIG    1       23.870 -21.416   6.178  0.00  0.00    +0.075 C 
ATOM      8  C   LIG    1       25.229 -21.673   6.740  0.00  0.00    +0.023 A 
ATOM      9  C   LIG    1       25.929 -20.564   7.250  0.00  0.00    +0.032 A 
ATOM     10  C   LIG    1       27.242 -20.705   7.681  0.00  0.00    +0.042 A 
ATOM     11 CL   LIG    1       28.097 -19.344   8.289  0.00  0.00    -0.084 Cl
ATOM     12  C   LIG    1       27.870 -21.941   7.611  0.00  0.00    +0.022 A 
ATOM     13  C   LIG    1       27.168 -23.051   7.128  0.00  0.00    +0.025 A 
ATOM     14  C   LIG    1       25.827 -22.949   6.711  0.00  0.00    +0.045 A 
ENDROOT
BRANCH   7  15
ATOM     15  C   LIG    1       23.679 -20.253   5.252  0.00  0.00    +0.001 A 
ATOM     16  C   LIG    1       24.636 -19.930   4.281  0.00  0.00    +0.010 A 
ATOM     17  C   LIG    1       24.427 -18.841   3.431  0.00  0.00    +0.001 A 
ATOM     18  C   LIG    1       23.263 -18.081   3.540  0.00  0.00    +0.000 A 
ATOM     19  C   LIG    1       22.299 -18.412   4.492  0.00  0.00    +0.001 A 
ATOM     20  C   LIG    1       22.503 -19.498   5.343  0.00  0.00    +0.010 A 
ENDBRANCH   7  15
TORSDOF 1
ENDMDL
MODEL 3
REMARK VINA RESULT:      -7.3      6.335      9.355
REMARK  Name = *****
REMARK                            x       y       z     vdW  Elec       q    Type
REMARK                         _______ _______ _______ _____ _____    ______ ____
ROOT
ATOM      1  C   LIG    1       27.201 -33.109   6.729  0.00  0.00    +0.138 C 
ATOM      2  N   LIG    1       26.087 -32.199   6.956  0.00  0.00    -0.272 N 
ATOM      3  C   LIG    1       24.885 -32.509   6.308  0.00  0.00    +0.241 C 
ATOM      4  O   LIG    1       24.784 -33.462   5.528  0.00  0.00    -0.273 OA
ATOM      5  C   LIG    1       23.661 -31.683   6.677  0.00  0.00    +0.238 C 
ATOM      6  N   LIG    1       23.810 -30.333   6.143  0.00  0.00    -0.273 NA
ATOM      7  C   LIG    1       24.689 -29.561   6.688  0.00  0.00    +0.075 C 
ATOM      8  C   LIG    1       25.516 -29.943   7.870  0.00  0.00    +0.023 A 
ATOM      9  C   LIG    1       25.622 -28.998   8.907  0.00  0.00    +0.032 A 
ATOM     10  C   LIG    1       26.468 -29.235   9.984  0.00  0.00    +0.042 A 
ATOM     11 CL   LIG    1       26.605 -28.070  11.240  0.00  0.00    -0.084 Cl
ATOM     12  C   LIG    1       27.212 -30.405  10.042  0.00  0.00    +0.022 A 
ATOM     13  C   LIG    1       27.089 -31.358   9.025  0.00  0.00    +0.025 A 
ATOM     14  C   LIG    1       26.219 -31.163   7.934  0.00  0.00    +0.045 A 
ENDROOT
BRANCH   7  15
ATOM     15  C   LIG    1       24.871 -28.199   6.088  0.00  0.00    +0.001 A 
ATOM     16  C   LIG    1       24.113 -27.103   6.523  0.00  0.00    +0.010 A 
ATOM     17  C   LIG    1       24.308 -25.847   5.945  0.00  0.00    +0.001 A 
ATOM     18  C   LIG    1       25.264 -25.678   4.943  0.00  0.00    +0.000 A 
ATOM     19  C   LIG    1       26.033 -26.761   4.522  0.00  0.00    +0.001 A 
ATOM     20  C   LIG    1       25.843 -28.018   5.096  0.00  0.00    +0.010 A 
ENDBRANCH   7  15
TORSDOF 1
ENDMDL
MODEL 4
REMARK VINA RESULT:      -6.8      2.509      4.799
REMARK  Name = *****
REMARK                            x       y       z     vdW  Elec       q    Type
REMARK                         _______ _______ _______ _____ _____    ______ ____
ROOT
ATOM      1  C   LIG    1       21.952 -22.608   6.840  0.00  0.00    +0.138 C 
ATOM      2  N   LIG    1       23.298 -22.674   6.288  0.00  0.00    -0.272 N 
ATOM      3  C   LIG    1       23.936 -23.920   6.342  0.00  0.00    +0.241 C 
ATOM      4  O   LIG    1       23.420 -24.901   6.888  0.00  0.00    -0.273 OA
ATOM      5  C   LIG    1       25.261 -24.057   5.607  0.00  0.00    +0.238 C 
ATOM      6  N   LIG    1       26.288 -23.300   6.316  0.00  0.00    -0.273 NA
ATOM      7  C   LIG    1       26.222 -22.012   6.279  0.00  0.00    +0.075 C 
ATOM      8  C   LIG    1       25.198 -21.250   5.504  0.00  0.00    +0.023 A 
ATOM      9  C   LIG    1       25.657 -20.172   4.726  0.00  0.00    +0.032 A 
ATOM     10  C   LIG    1       24.752 -19.347   4.072  0.00  0.00    +0.042 A 
ATOM     11 CL   LIG    1       25.318 -18.021   3.136  0.00  0.00    -0.084 Cl
ATOM     12  C   LIG    1       23.388 -19.582   4.182  0.00  0.00    +0.022 A 
ATOM     13  C   LIG    1       22.929 -20.669   4.934  0.00  0.00    +0.025 A 
ATOM     14  C   LIG    1       23.821 -21.543   5.586  0.00  0.00    +0.045 A 
ENDROOT
BRANCH   7  15
ATOM     15  C   LIG    1       27.249 -21.250   7.063  0.00  0.00    +0.001 A 
ATOM     16  C   LIG    1       26.883 -20.432   8.140  0.00  0.00    +0.010 A 
ATOM     17  C   LIG    1       27.864 -19.736   8.852  0.00  0.00    +0.001 A 
ATOM     18  C   LIG    1       29.207 -19.864   8.499  0.00  0.00    +0.000 A 
ATOM     19  C   LIG    1       29.576 -20.693   7.441  0.00  0.00    +0.001 A 
ATOM     20  C   LIG    1       28.600 -21.390   6.727  0.00  0.00    +0.010 A 
ENDBRANCH   7  15
TORSDOF 1
ENDMDL
MODEL 5
REMARK VINA RESULT:      -6.8      6.990      9.113
REMARK  Name = *****
REMARK                            x       y       z     vdW  Elec       q    Type
REMARK                         _______ _______ _______ _____ _____    ______ ____
ROOT
ATOM      1  C   LIG    1       23.480 -32.404   6.982  0.00  0.00    +0.138 C 
ATOM      2  N   LIG    1       24.679 -31.728   7.458  0.00  0.00    -0.272 N 
ATOM      3  C   LIG    1       25.699 -32.545   7.962  0.00  0.00    +0.241 C 
ATOM      4  O   LIG    1       25.571 -33.770   8.066  0.00  0.00    -0.273 OA
ATOM      5  C   LIG    1       27.028 -31.879   8.289  0.00  0.00    +0.238 C 
ATOM      6  N   LIG    1       26.869 -31.040   9.473  0.00  0.00    -0.273 NA
ATOM      7  C   LIG    1       26.178 -29.957   9.357  0.00  0.00    +0.075 C 
ATOM      8  C   LIG    1       25.583 -29.480   8.073  0.00  0.00    +0.023 A 
ATOM      9  C   LIG    1       25.758 -28.121   7.755  0.00  0.00    +0.032 A 
ATOM     10  C   LIG    1       25.135 -27.579   6.638  0.00  0.00    +0.042 A 
ATOM     11 CL   LIG    1       25.340 -25.914   6.263  0.00  0.00    -0.084 Cl
ATOM     12  C   LIG    1       24.337 -28.377   5.829  0.00  0.00    +0.022 A 
ATOM     13  C   LIG    1       24.182 -29.734   6.129  0.00  0.00    +0.025 A 
ATOM     14  C   LIG    1       24.823 -30.322   7.237  0.00  0.00    +0.045 A 
ENDROOT
BRANCH   7  15
ATOM     15  C   LIG    1       25.974 -29.138  10.596  0.00  0.00    +0.001 A 
ATOM     16  C   LIG    1       26.911 -28.176  10.996  0.00  0.00    +0.010 A 
ATOM     17  C   LIG    1       26.692 -27.427  12.155  0.00  0.00    +0.001 A 
ATOM     18  C   LIG    1       25.536 -27.628  12.908  0.00  0.00    +0.000 A 
ATOM     19  C   LIG    1       24.592 -28.569  12.503  0.00  0.00    +0.001 A 
ATOM     20  C   LIG    1       24.806 -29.320  11.346  0.00  0.00    +0.010 A 
ENDBRANCH   7  15
TORSDOF 1
ENDMDL
MODEL 6
REMARK VINA RESULT:      -6.7      5.732      8.998
REMARK  Name = *****
REMARK                            x       y       z     vdW  Elec       q    Type
REMARK                         _______ _______ _______ _____ _____    ______ ____
ROOT
ATOM      1  C   LIG    1       22.491 -31.374   9.918  0.00  0.00    +0.138 C 
ATOM      2  N   LIG    1       23.766 -30.851   9.445  0.00  0.00    -0.272 N 
ATOM      3  C   LIG    1       24.589 -30.248  10.404  0.00  0.00    +0.241 C 
ATOM      4  O   LIG    1       24.233 -30.101  11.578  0.00  0.00    -0.273 OA
ATOM      5  C   LIG    1       25.998 -29.866   9.973  0.00  0.00    +0.238 C 
ATOM      6  N   LIG    1       25.931 -28.733   9.056  0.00  0.00    -0.273 NA
ATOM      7  C   LIG    1       25.457 -28.939   7.874  0.00  0.00    +0.075 C 
ATOM      8  C   LIG    1       25.032 -30.277   7.367  0.00  0.00    +0.023 A 
ATOM      9  C   LIG    1       25.471 -30.642   6.081  0.00  0.00    +0.032 A 
ATOM     10  C   LIG    1       25.020 -31.819   5.497  0.00  0.00    +0.042 A 
ATOM     11 CL   LIG    1       25.547 -32.251   3.919  0.00  0.00    -0.084 Cl
ATOM     12  C   LIG    1       24.135 -32.642   6.180  0.00  0.00    +0.022 A 
ATOM     13  C   LIG    1       23.717 -32.295   7.469  0.00  0.00    +0.025 A 
ATOM     14  C   LIG    1       24.177 -31.124   8.102  0.00  0.00    +0.045 A 
ENDROOT
BRANCH   7  15
ATOM     15  C   LIG    1       25.340 -27.752   6.966  0.00  0.00    +0.001 A 
ATOM     16  C   LIG    1       24.279 -27.631   6.058  0.00  0.00    +0.010 A 
ATOM     17  C   LIG    1       24.196 -26.511   5.226  0.00  0.00    +0.001 A 
ATOM     18  C   LIG    1       25.162 -25.508   5.306  0.00  0.00    +0.000 A 
ATOM     19  C   LIG    1       26.207 -25.615   6.222  0.00  0.00    +0.001 A 
ATOM     20  C   LIG    1       26.294 -26.732   7.054  0.00  0.00    +0.010 A 
ENDBRANCH   7  15
TORSDOF 1
ENDMDL
MODEL 7
REMARK VINA RESULT:      -6.6      3.041      4.138
REMARK  Name = *****
REMARK                            x       y       z     vdW  Elec       q    Type
REMARK                         _______ _______ _______ _____ _____    ______ ____
ROOT
ATOM      1  C   LIG    1       22.888 -20.135   7.642  0.00  0.00    +0.138 C 
ATOM      2  N   LIG    1       23.759 -20.780   6.668  0.00  0.00    -0.272 N 
ATOM      3  C   LIG    1       23.260 -20.898   5.365  0.00  0.00    +0.241 C 
ATOM      4  O   LIG    1       22.116 -20.541   5.062  0.00  0.00    -0.273 OA
ATOM      5  C   LIG    1       24.220 -21.395   4.293  0.00  0.00    +0.238 C 
ATOM      6  N   LIG    1       24.494 -22.812   4.510  0.00  0.00    -0.273 NA
ATOM      7  C   LIG    1       25.216 -23.139   5.528  0.00  0.00    +0.075 C 
ATOM      8  C   LIG    1       25.838 -22.154   6.461  0.00  0.00    +0.023 A 
ATOM      9  C   LIG    1       27.187 -22.360   6.801  0.00  0.00    +0.032 A 
ATOM     10  C   LIG    1       27.799 -21.554   7.753  0.00  0.00    +0.042 A 
ATOM     11 CL   LIG    1       29.443 -21.822   8.176  0.00  0.00    -0.084 Cl
ATOM     12  C   LIG    1       27.082 -20.540   8.373  0.00  0.00    +0.022 A 
ATOM     13  C   LIG    1       25.747 -20.315   8.017  0.00  0.00    +0.025 A 
ATOM     14  C   LIG    1       25.105 -21.095   7.036  0.00  0.00    +0.045 A 
ENDROOT
BRANCH   7  15
ATOM     15  C   LIG    1       25.437 -24.602   5.770  0.00  0.00    +0.001 A 
ATOM     16  C   LIG    1       25.769 -25.088   7.042  0.00  0.00    +0.010 A 
ATOM     17  C   LIG    1       25.967 -26.458   7.235  0.00  0.00    +0.001 A 
ATOM     18  C   LIG    1       25.823 -27.343   6.167  0.00  0.00    +0.000 A 
ATOM     19  C   LIG    1       25.472 -26.865   4.906  0.00  0.00    +0.001 A 
ATOM     20  C   LIG    1       25.274 -25.499   4.707  0.00  0.00    +0.010 A 
ENDBRANCH   7  15
TORSDOF 1
ENDMDL
MODEL 8
REMARK VINA RESULT:      -6.4      6.468      8.765
REMARK  Name = *****
REMARK                            x       y       z     vdW  Elec       q    Type
REMARK                         _______ _______ _______ _____ _____    ______ ____
ROOT
ATOM      1  C   LIG    1       26.915 -28.178  12.884  0.00  0.00    +0.138 C 
ATOM      2  N   LIG    1       26.637 -29.075  11.770  0.00  0.00    -0.272 N 
ATOM      3  C   LIG    1       27.740 -29.719  11.197  0.00  0.00    +0.241 C 
ATOM      4  O   LIG    1       28.899 -29.494  11.563  0.00  0.00    -0.273 OA
ATOM      5  C   LIG    1       27.456 -30.798  10.161  0.00  0.00    +0.238 C 
ATOM      6  N   LIG    1       26.957 -30.175   8.939  0.00  0.00    -0.273 NA
ATOM      7  C   LIG    1       25.772 -29.666   8.962  0.00  0.00    +0.075 C 
ATOM      8  C   LIG    1       24.858 -29.730  10.140  0.00  0.00    +0.023 A 
ATOM      9  C   LIG    1       23.524 -30.100   9.894  0.00  0.00    +0.032 A 
ATOM     10  C   LIG    1       22.589 -30.068  10.921  0.00  0.00    +0.042 A 
ATOM     11 CL   LIG    1       20.956 -30.507  10.611  0.00  0.00    -0.084 Cl
ATOM     12  C   LIG    1       22.968 -29.671  12.197  0.00  0.00    +0.022 A 
ATOM     13  C   LIG    1       24.300 -29.328  12.450  0.00  0.00    +0.025 A 
ATOM     14  C   LIG    1       25.278 -29.377  11.439  0.00  0.00    +0.045 A 
ENDROOT
BRANCH   7  15
ATOM     15  C   LIG    1       25.298 -28.977   7.717  0.00  0.00    +0.001 A 
ATOM     16  C   LIG    1       24.450 -29.620   6.806  0.00  0.00    +0.010 A 
ATOM     17  C   LIG    1       24.024 -28.950   5.656  0.00  0.00    +0.001 A 
ATOM     18  C   LIG    1       24.434 -27.638   5.419  0.00  0.00    +0.000 A 
ATOM     19  C   LIG    1       25.261 -26.988   6.333  0.00  0.00    +0.001 A 
ATOM     20  C   LIG    1       25.689 -27.653   7.483  0.00  0.00    +0.010 A 
ENDBRANCH   7  15
TORSDOF 1
ENDMDL
MODEL 9
REMARK VINA RESULT:      -6.3      6.335      8.580
REMARK  Name = *****
REMARK                            x       y       z     vdW  Elec       q    Type
REMARK                         _______ _______ _______ _____ _____    ______ ____
ROOT
ATOM      1  C   LIG    1       26.928 -29.433  10.473  0.00  0.00    +0.138 C 
ATOM      2  N   LIG    1       25.731 -29.635   9.667  0.00  0.00    -0.272 N 
ATOM      3  C   LIG    1       24.697 -30.371  10.256  0.00  0.00    +0.241 C 
ATOM      4  O   LIG    1       24.809 -30.886  11.374  0.00  0.00    -0.273 OA
ATOM      5  C   LIG    1       23.372 -30.434   9.509  0.00  0.00    +0.238 C 
ATOM      6  N   LIG    1       23.528 -31.264   8.319  0.00  0.00    -0.273 NA
ATOM      7  C   LIG    1       24.233 -30.798   7.345  0.00  0.00    +0.075 C 
ATOM      8  C   LIG    1       24.847 -29.437   7.336  0.00  0.00    +0.023 A 
ATOM      9  C   LIG    1       24.692 -28.674   6.165  0.00  0.00    +0.032 A 
ATOM     10  C   LIG    1       25.333 -27.448   6.039  0.00  0.00    +0.042 A 
ATOM     11 CL   LIG    1       25.152 -26.527   4.599  0.00  0.00    -0.084 Cl
ATOM     12  C   LIG    1       26.131 -26.969   7.070  0.00  0.00    +0.022 A 
ATOM     13  C   LIG    1       26.266 -27.714   8.246  0.00  0.00    +0.025 A 
ATOM     14  C   LIG    1       25.607 -28.947   8.418  0.00  0.00    +0.045 A 
ENDROOT
BRANCH   7  15
ATOM     15  C   LIG    1       24.433 -31.688   6.155  0.00  0.00    +0.001 A 
ATOM     16  C   LIG    1       25.605 -31.628   5.389  0.00  0.00    +0.010 A 
ATOM     17  C   LIG    1       25.761 -32.473   4.287  0.00  0.00    +0.001 A 
ATOM     18  C   LIG    1       24.759 -33.383   3.955  0.00  0.00    +0.000 A 
ATOM     19  C   LIG    1       23.601 -33.459   4.727  0.00  0.00    +0.001 A 
ATOM     20  C   LIG    1       23.439 -32.618   5.829  0.00  0.00    +0.010 A 
ENDBRANCH   7  15
TORSDOF 1
ENDMDL
