MODEL 1
REMARK VINA RESULT:      -4.9      0.000      0.000
REMARK  Name = *****
REMARK                            x       y       z     vdW  Elec       q    Type
REMARK                         _______ _______ _______ _____ _____    ______ ____
ROOT
ATOM      1  C   LIG    1       26.036 -17.817   3.325  0.00  0.00    +0.002 C 
ENDROOT
BRANCH   1   2
ATOM      2  C   LIG    1       25.763 -16.308   3.332  0.00  0.00    +0.011 C 
BRANCH   2   3
ATOM      3  C   LIG    1       27.010 -15.460   3.606  0.00  0.00    +0.120 C 
BRANCH   3   5
ATOM      4  O   LIG    1       26.373 -13.933   1.816  0.00  0.00    -0.251 OA
ATOM      5  C   LIG    1       27.119 -14.223   2.743  0.00  0.00    +0.305 C 
BRANCH   5   6
ATOM      6  O   LIG    1       28.139 -13.419   3.114  0.00  0.00    -0.481 OA
ATOM      7  H   LIG    1       28.672 -13.085   2.366  0.00  0.00    +0.295 HD
ENDBRANCH   5   6
ENDBRANCH   3   5
ENDBRANCH   2   3
ENDBRANCH   1   2
BRANCH   1   8
ATOM      8  C   LIG    1       24.803 -18.636   3.740  0.00  0.00    +0.015 C 
BRANCH   8   9
ATOM      9  C   LIG    1       25.125 -20.124   3.981  0.00  0.00    +0.058 C 
ATOM     10  S   LIG    1       25.796 -20.433   5.651  0.00  0.00    -0.090 S 
ATOM     11  S   LIG    1       24.025 -20.895   6.574  0.00  0.00    -0.093 S 
ATOM     12  C   LIG    1       22.978 -20.836   5.100  0.00  0.00    +0.082 C 
ATOM     13  C   LIG    1       23.887 -21.028   3.889  0.00  0.00    +0.026 C 
ENDBRANCH   8   9
ENDBRANCH   1   8
TORSDOF 6
ENDMDL
MODEL 2
REMARK VINA RESULT:      -4.8      3.606      4.632
REMARK  Name = *****
REMARK                            x       y       z     vdW  Elec       q    Type
REMARK                         _______ _______ _______ _____ _____    ______ ____
ROOT
ATOM      1  C   LIG    1       26.082 -21.530   6.836  0.00  0.00    +0.002 C 
ENDROOT
BRANCH   1   2
ATOM      2  C   LIG    1       27.118 -20.421   7.058  0.00  0.00    +0.011 C 
BRANCH   2   3
ATOM      3  C   LIG    1       27.984 -20.135   5.827  0.00  0.00    +0.120 C 
BRANCH   3   5
ATOM      4  O   LIG    1       29.475 -18.598   6.992  0.00  0.00    -0.251 OA
ATOM      5  C   LIG    1       28.886 -18.929   5.971  0.00  0.00    +0.305 C 
BRANCH   5   6
ATOM      6  O   LIG    1       29.011 -18.233   4.820  0.00  0.00    -0.481 OA
ATOM      7  H   LIG    1       29.018 -17.263   4.942  0.00  0.00    +0.295 HD
ENDBRANCH   5   6
ENDBRANCH   3   5
ENDBRANCH   2   3
ENDBRANCH   1   2
BRANCH   1   8
ATOM      8  C   LIG    1       24.642 -20.992   6.837  0.00  0.00    +0.015 C 
BRANCH   8   9
ATOM      9  C   LIG    1       23.857 -21.379   5.568  0.00  0.00    +0.058 C 
ATOM     10  S   LIG    1       22.415 -20.297   5.281  0.00  0.00    -0.090 S 
ATOM     11  S   LIG    1       23.329 -18.950   4.035  0.00  0.00    -0.093 S 
ATOM     12  C   LIG    1       24.925 -19.794   3.920  0.00  0.00    +0.082 C 
ATOM     13  C   LIG    1       24.692 -21.257   4.285  0.00  0.00    +0.026 C 
ENDBRANCH   8   9
ENDBRANCH   1   8
TORSDOF 6
ENDMDL
MODEL 3
REMARK VINA RESULT:      -4.5      4.434      6.403
REMARK  Name = *****
REMARK                            x       y       z     vdW  Elec       q    Type
REMARK                         _______ _______ _______ _____ _____    ______ ____
ROOT
ATOM      1  C   LIG    1       25.900 -16.441   3.280  0.00  0.00    +0.002 C 
ENDROOT
BRANCH   1   2
ATOM      2  C   LIG    1       26.005 -17.971   3.252  0.00  0.00    +0.011 C 
BRANCH   2   3
ATOM      3  C   LIG    1       24.691 -18.682   3.593  0.00  0.00    +0.120 C 
BRANCH   3   5
ATOM      4  O   LIG    1       23.972 -21.008   3.725  0.00  0.00    -0.251 OA
ATOM      5  C   LIG    1       24.843 -20.160   3.878  0.00  0.00    +0.305 C 
BRANCH   5   6
ATOM      6  O   LIG    1       26.081 -20.482   4.310  0.00  0.00    -0.481 OA
ATOM      7  H   LIG    1       26.552 -21.112   3.731  0.00  0.00    +0.295 HD
ENDBRANCH   5   6
ENDBRANCH   3   5
ENDBRANCH   2   3
ENDBRANCH   1   2
BRANCH   1   8
ATOM      8  C   LIG    1       27.225 -15.772   3.677  0.00  0.00    +0.015 C 
BRANCH   8   9
ATOM      9  C   LIG    1       27.275 -14.276   3.312  0.00  0.00    +0.058 C 
ATOM     10  S   LIG    1       25.751 -13.707   2.483  0.00  0.00    -0.090 S 
ATOM     11  S   LIG    1       24.766 -13.040   4.152  0.00  0.00    -0.093 S 
ATOM     12  C   LIG    1       26.108 -13.317   5.334  0.00  0.00    +0.082 C 
ATOM     13  C   LIG    1       27.410 -13.362   4.539  0.00  0.00    +0.026 C 
ENDBRANCH   8   9
ENDBRANCH   1   8
TORSDOF 6
ENDMDL
MODEL 4
REMARK VINA RESULT:      -4.1      4.863      6.590
REMARK  Name = *****
REMARK                            x       y       z     vdW  Elec       q    Type
REMARK                         _______ _______ _______ _____ _____    ______ ____
ROOT
ATOM      1  C   LIG    1       26.023 -17.431   3.386  0.00  0.00    +0.002 C 
ENDROOT
BRANCH   1   2
ATOM      2  C   LIG    1       25.160 -18.699   3.371  0.00  0.00    +0.011 C 
BRANCH   2   3
ATOM      3  C   LIG    1       25.639 -19.779   4.347  0.00  0.00    +0.120 C 
BRANCH   3   5
ATOM      4  O   LIG    1       24.034 -20.543   6.016  0.00  0.00    -0.251 OA
ATOM      5  C   LIG    1       24.531 -20.647   4.902  0.00  0.00    +0.305 C 
BRANCH   5   6
ATOM      6  O   LIG    1       24.102 -21.571   4.015  0.00  0.00    -0.481 OA
ATOM      7  H   LIG    1       24.640 -21.619   3.200  0.00  0.00    +0.295 HD
ENDBRANCH   5   6
ENDBRANCH   3   5
ENDBRANCH   2   3
ENDBRANCH   1   2
BRANCH   1   8
ATOM      8  C   LIG    1       25.177 -16.149   3.405  0.00  0.00    +0.015 C 
BRANCH   8   9
ATOM      9  C   LIG    1       25.989 -14.900   3.800  0.00  0.00    +0.058 C 
ATOM     10  S   LIG    1       26.552 -13.944   2.350  0.00  0.00    -0.090 S 
ATOM     11  S   LIG    1       24.984 -12.626   2.267  0.00  0.00    -0.093 S 
ATOM     12  C   LIG    1       24.143 -13.179   3.771  0.00  0.00    +0.082 C 
ATOM     13  C   LIG    1       25.178 -13.896   4.633  0.00  0.00    +0.026 C 
ENDBRANCH   8   9
ENDBRANCH   1   8
TORSDOF 6
ENDMDL
MODEL 5
REMARK VINA RESULT:      -4.1      4.749      6.439
REMARK  Name = *****
REMARK                            x       y       z     vdW  Elec       q    Type
REMARK                         _______ _______ _______ _____ _____    ______ ____
ROOT
ATOM      1  C   LIG    1       26.256 -17.359   3.332  0.00  0.00    +0.002 C 
ENDROOT
BRANCH   1   2
ATOM      2  C   LIG    1       25.551 -18.702   3.556  0.00  0.00    +0.011 C 
BRANCH   2   3
ATOM      3  C   LIG    1       24.033 -18.577   3.730  0.00  0.00    +0.120 C 
BRANCH   3   5
ATOM      4  O   LIG    1       23.794 -20.921   4.357  0.00  0.00    -0.251 OA
ATOM      5  C   LIG    1       23.387 -19.767   4.405  0.00  0.00    +0.305 C 
BRANCH   5   6
ATOM      6  O   LIG    1       22.289 -19.429   5.114  0.00  0.00    -0.481 OA
ATOM      7  H   LIG    1       21.902 -20.168   5.622  0.00  0.00    +0.295 HD
ENDBRANCH   5   6
ENDBRANCH   3   5
ENDBRANCH   2   3
ENDBRANCH   1   2
BRANCH   1   8
ATOM      8  C   LIG    1       25.285 -16.170   3.410  0.00  0.00    +0.015 C 
BRANCH   8   9
ATOM      9  C   LIG    1       25.975 -14.860   3.840  0.00  0.00    +0.058 C 
ATOM     10  S   LIG    1       26.584 -13.891   2.417  0.00  0.00    -0.090 S 
ATOM     11  S   LIG    1       24.941 -12.689   2.182  0.00  0.00    -0.093 S 
ATOM     12  C   LIG    1       24.023 -13.275   3.627  0.00  0.00    +0.082 C 
ATOM     13  C   LIG    1       25.033 -13.902   4.583  0.00  0.00    +0.026 C 
ENDBRANCH   8   9
ENDBRANCH   1   8
TORSDOF 6
ENDMDL
MODEL 6
REMARK VINA RESULT:      -4.1      2.258      2.566
REMARK  Name = *****
REMARK                            x       y       z     vdW  Elec       q    Type
REMARK                         _______ _______ _______ _____ _____    ______ ____
ROOT
ATOM      1  C   LIG    1       23.137 -16.927   4.034  0.00  0.00    +0.002 C 
ENDROOT
BRANCH   1   2
ATOM      2  C   LIG    1       23.013 -15.579   4.754  0.00  0.00    +0.011 C 
BRANCH   2   3
ATOM      3  C   LIG    1       23.687 -14.421   4.009  0.00  0.00    +0.120 C 
BRANCH   3   5
ATOM      4  O   LIG    1       25.926 -15.189   3.427  0.00  0.00    -0.251 OA
ATOM      5  C   LIG    1       25.199 -14.443   4.070  0.00  0.00    +0.305 C 
BRANCH   5   6
ATOM      6  O   LIG    1       25.699 -13.512   4.911  0.00  0.00    -0.481 OA
ATOM      7  H   LIG    1       26.105 -13.884   5.718  0.00  0.00    +0.295 HD
ENDBRANCH   5   6
ENDBRANCH   3   5
ENDBRANCH   2   3
ENDBRANCH   1   2
BRANCH   1   8
ATOM      8  C   LIG    1       22.349 -18.041   4.740  0.00  0.00    +0.015 C 
BRANCH   8   9
ATOM      9  C   LIG    1       22.647 -19.441   4.169  0.00  0.00    +0.058 C 
ATOM     10  S   LIG    1       24.418 -19.679   3.790  0.00  0.00    -0.090 S 
ATOM     11  S   LIG    1       24.965 -20.531   5.573  0.00  0.00    -0.093 S 
ATOM     12  C   LIG    1       23.310 -20.623   6.298  0.00  0.00    +0.082 C 
ATOM     13  C   LIG    1       22.307 -20.574   5.149  0.00  0.00    +0.026 C 
ENDBRANCH   8   9
ENDBRANCH   1   8
TORSDOF 6
ENDMDL
MODEL 7
REMARK VINA RESULT:      -4.1      4.531      6.537
REMARK  Name = *****
REMARK                            x       y       z     vdW  Elec       q    Type
REMARK                         _______ _______ _______ _____ _____    ______ ____
ROOT
ATOM      1  C   LIG    1       25.248 -17.455   3.330  0.00  0.00    +0.002 C 
ENDROOT
BRANCH   1   2
ATOM      2  C   LIG    1       25.667 -18.894   3.656  0.00  0.00    +0.011 C 
BRANCH   2   3
ATOM      3  C   LIG    1       24.487 -19.861   3.795  0.00  0.00    +0.120 C 
BRANCH   3   5
ATOM      4  O   LIG    1       23.670 -20.616   5.965  0.00  0.00    -0.251 OA
ATOM      5  C   LIG    1       24.502 -20.678   5.068  0.00  0.00    +0.305 C 
BRANCH   5   6
ATOM      6  O   LIG    1       25.544 -21.536   5.121  0.00  0.00    -0.481 OA
ATOM      7  H   LIG    1       25.977 -21.688   4.259  0.00  0.00    +0.295 HD
ENDBRANCH   5   6
ENDBRANCH   3   5
ENDBRANCH   2   3
ENDBRANCH   1   2
BRANCH   1   8
ATOM      8  C   LIG    1       26.432 -16.477   3.376  0.00  0.00    +0.015 C 
BRANCH   8   9
ATOM      9  C   LIG    1       26.035 -15.036   2.998  0.00  0.00    +0.058 C 
ATOM     10  S   LIG    1       25.131 -14.185   4.336  0.00  0.00    -0.090 S 
ATOM     11  S   LIG    1       26.742 -13.273   5.216  0.00  0.00    -0.093 S 
ATOM     12  C   LIG    1       27.984 -13.791   4.007  0.00  0.00    +0.082 C 
ATOM     13  C   LIG    1       27.246 -14.135   2.716  0.00  0.00    +0.026 C 
ENDBRANCH   8   9
ENDBRANCH   1   8
TORSDOF 6
ENDMDL
MODEL 8
REMARK VINA RESULT:      -4.0      4.961      6.958
REMARK  Name = *****
REMARK                            x       y       z     vdW  Elec       q    Type
REMARK                         _______ _______ _______ _____ _____    ______ ____
ROOT
ATOM      1  C   LIG    1       22.642 -16.352   4.857  0.00  0.00    +0.002 C 
ENDROOT
BRANCH   1   2
ATOM      2  C   LIG    1       22.819 -17.704   4.154  0.00  0.00    +0.011 C 
BRANCH   2   3
ATOM      3  C   LIG    1       22.212 -18.881   4.925  0.00  0.00    +0.120 C 
BRANCH   3   5
ATOM      4  O   LIG    1       24.291 -20.153   5.005  0.00  0.00    -0.251 OA
ATOM      5  C   LIG    1       23.069 -20.128   4.926  0.00  0.00    +0.305 C 
BRANCH   5   6
ATOM      6  O   LIG    1       22.337 -21.261   4.855  0.00  0.00    -0.481 OA
ATOM      7  H   LIG    1       22.439 -21.746   4.013  0.00  0.00    +0.295 HD
ENDBRANCH   5   6
ENDBRANCH   3   5
ENDBRANCH   2   3
ENDBRANCH   1   2
BRANCH   1   8
ATOM      8  C   LIG    1       23.062 -15.172   3.968  0.00  0.00    +0.015 C 
BRANCH   8   9
ATOM      9  C   LIG    1       24.274 -14.401   4.528  0.00  0.00    +0.058 C 
ATOM     10  S   LIG    1       25.812 -14.755   3.611  0.00  0.00    -0.090 S 
ATOM     11  S   LIG    1       25.708 -13.191   2.290  0.00  0.00    -0.093 S 
ATOM     12  C   LIG    1       24.239 -12.400   2.990  0.00  0.00    +0.082 C 
ATOM     13  C   LIG    1       24.111 -12.877   4.434  0.00  0.00    +0.026 C 
ENDBRANCH   8   9
ENDBRANCH   1   8
TORSDOF 6
ENDMDL
MODEL 9
REMARK VINA RESULT:      -3.9      4.795      6.685
REMARK  Name = *****
REMARK                            x       y       z     vdW  Elec       q    Type
REMARK                         _______ _______ _______ _____ _____    ______ ____
ROOT
ATOM      1  C   LIG    1       22.551 -15.810   4.911  0.00  0.00    +0.002 C 
ENDROOT
BRANCH   1   2
ATOM      2  C   LIG    1       22.151 -17.273   4.680  0.00  0.00    +0.011 C 
BRANCH   2   3
ATOM      3  C   LIG    1       23.247 -18.110   4.012  0.00  0.00    +0.120 C 
BRANCH   3   5
ATOM      4  O   LIG    1       22.341 -20.133   5.027  0.00  0.00    -0.251 OA
ATOM      5  C   LIG    1       23.227 -19.574   4.392  0.00  0.00    +0.305 C 
BRANCH   5   6
ATOM      6  O   LIG    1       24.304 -20.245   3.931  0.00  0.00    -0.481 OA
ATOM      7  H   LIG    1       24.749 -19.812   3.177  0.00  0.00    +0.295 HD
ENDBRANCH   5   6
ENDBRANCH   3   5
ENDBRANCH   2   3
ENDBRANCH   1   2
BRANCH   1   8
ATOM      8  C   LIG    1       23.791 -15.408   4.098  0.00  0.00    +0.015 C 
BRANCH   8   9
ATOM      9  C   LIG    1       24.252 -13.965   4.380  0.00  0.00    +0.058 C 
ATOM     10  S   LIG    1       26.051 -13.848   4.669  0.00  0.00    -0.090 S 
ATOM     11  S   LIG    1       26.608 -13.415   2.744  0.00  0.00    -0.093 S 
ATOM     12  C   LIG    1       24.943 -13.288   2.049  0.00  0.00    +0.082 C 
ATOM     13  C   LIG    1       23.987 -13.010   3.206  0.00  0.00    +0.026 C 
ENDBRANCH   8   9
ENDBRANCH   1   8
TORSDOF 6
ENDMDL
