MODEL 1
REMARK VINA RESULT:       0.9      0.000      0.000
REMARK  Name = *****
REMARK                            x       y       z     vdW  Elec       q    Type
REMARK                         _______ _______ _______ _____ _____    ______ ____
ROOT
ATOM      1  C   LIG    1       23.823 -21.572   3.176  0.00  0.00    +0.157 C 
ATOM      2  N   LIG    1       24.102 -20.201   3.659  0.00  0.00    -0.206 N 
ATOM      3  S   LIG    1       22.738 -19.443   4.349  0.00  0.00    +0.075 S 
ATOM      4  O   LIG    1       22.563 -20.004   5.681  0.00  0.00    -0.150 OA
ATOM      5  O   LIG    1       21.668 -19.516   3.379  0.00  0.00    -0.150 OA
ATOM      6  C   LIG    1       23.074 -17.697   4.573  0.00  0.00    +0.115 A 
ATOM      7  C   LIG    1       24.216 -17.013   4.091  0.00  0.00    +0.001 A 
ATOM      8  C   LIG    1       24.338 -15.649   4.433  0.00  0.00    +0.009 A 
ATOM      9  C   LIG    1       23.356 -14.987   5.179  0.00  0.00    +0.020 A 
ATOM     10  C   LIG    1       22.228 -15.673   5.607  0.00  0.00    +0.043 A 
ATOM     11 CL   LIG    1       21.011 -14.852   6.502  0.00  0.00    -0.084 Cl
ATOM     12  C   LIG    1       25.301 -17.730   3.283  0.00  0.00    +0.118 C 
ATOM     13  C   LIG    1       25.975 -18.754   4.186  0.00  0.00    -0.004 A 
ATOM     14  C   LIG    1       27.154 -18.489   4.903  0.00  0.00    +0.007 A 
ATOM     15  C   LIG    1       27.705 -19.453   5.744  0.00  0.00    +0.001 A 
ATOM     16  C   LIG    1       27.057 -20.672   5.921  0.00  0.00    +0.002 A 
ATOM     17  C   LIG    1       25.866 -20.936   5.246  0.00  0.00    +0.025 A 
ATOM     18  C   LIG    1       22.083 -17.022   5.315  0.00  0.00    +0.049 A 
ATOM     19  C   LIG    1       25.342 -19.995   4.356  0.00  0.00    +0.056 A 
ENDROOT
BRANCH  12  20
ATOM     20  N   LIG    1       26.244 -16.829   2.576  0.00  0.00    -0.306 NA
ATOM     21  H   LIG    1       25.988 -16.763   1.596  0.00  0.00    +0.123 HD
BRANCH  20  22
ATOM     22  C   LIG    1       26.277 -15.486   3.173  0.00  0.00    +0.082 C 
BRANCH  22  23
ATOM     23  C   LIG    1       26.741 -14.439   2.154  0.00  0.00    +0.015 C 
BRANCH  23  24
ATOM     24  C   LIG    1       25.990 -13.111   2.344  0.00  0.00    +0.001 C 
BRANCH  24  25
ATOM     25  C   LIG    1       25.234 -13.060   3.678  0.00  0.00    +0.001 C 
BRANCH  25  26
ATOM     26  C   LIG    1       26.043 -12.352   4.774  0.00  0.00    +0.011 C 
BRANCH  26  27
ATOM     27  C   LIG    1       27.208 -13.205   5.278  0.00  0.00    +0.120 C 
BRANCH  27  28
ATOM     28  C   LIG    1       28.537 -12.627   4.857  0.00  0.00    +0.305 C 
ATOM     29  O   LIG    1       29.113 -12.827   3.804  0.00  0.00    -0.251 OA
BRANCH  28  30
ATOM     30  O   LIG    1       29.078 -11.828   5.797  0.00  0.00    -0.481 OA
ATOM     31  H   LIG    1       28.556 -11.001   5.745  0.00  0.00    +0.295 HD
ENDBRANCH  28  30
ENDBRANCH  27  28
ENDBRANCH  26  27
ENDBRANCH  25  26
ENDBRANCH  24  25
ENDBRANCH  23  24
ENDBRANCH  22  23
ENDBRANCH  20  22
ENDBRANCH  12  20
TORSDOF 9
ENDMDL
MODEL 2
REMARK VINA RESULT:       1.0      1.650      2.093
REMARK  Name = *****
REMARK                            x       y       z     vdW  Elec       q    Type
REMARK                         _______ _______ _______ _____ _____    ______ ____
ROOT
ATOM      1  C   LIG    1       23.379 -21.571   3.325  0.00  0.00    +0.157 C 
ATOM      2  N   LIG    1       23.787 -20.218   3.763  0.00  0.00    -0.206 N 
ATOM      3  S   LIG    1       22.504 -19.316   4.435  0.00  0.00    +0.075 S 
ATOM      4  O   LIG    1       22.287 -19.817   5.784  0.00  0.00    -0.150 OA
ATOM      5  O   LIG    1       21.425 -19.320   3.472  0.00  0.00    -0.150 OA
ATOM      6  C   LIG    1       23.001 -17.603   4.603  0.00  0.00    +0.115 A 
ATOM      7  C   LIG    1       24.198 -17.043   4.095  0.00  0.00    +0.001 A 
ATOM      8  C   LIG    1       24.449 -15.686   4.393  0.00  0.00    +0.009 A 
ATOM      9  C   LIG    1       23.537 -14.913   5.122  0.00  0.00    +0.020 A 
ATOM     10  C   LIG    1       22.353 -15.478   5.575  0.00  0.00    +0.043 A 
ATOM     11 CL   LIG    1       21.223 -14.520   6.449  0.00  0.00    -0.084 Cl
ATOM     12  C   LIG    1       25.207 -17.882   3.305  0.00  0.00    +0.118 C 
ATOM     13  C   LIG    1       25.789 -18.936   4.237  0.00  0.00    -0.004 A 
ATOM     14  C   LIG    1       26.993 -18.758   4.941  0.00  0.00    +0.007 A 
ATOM     15  C   LIG    1       27.457 -19.743   5.810  0.00  0.00    +0.001 A 
ATOM     16  C   LIG    1       26.701 -20.891   6.028  0.00  0.00    +0.002 A 
ATOM     17  C   LIG    1       25.486 -21.064   5.365  0.00  0.00    +0.025 A 
ATOM     18  C   LIG    1       22.082 -16.816   5.327  0.00  0.00    +0.049 A 
ATOM     19  C   LIG    1       25.046 -20.107   4.449  0.00  0.00    +0.056 A 
ENDROOT
BRANCH  12  20
ATOM     20  N   LIG    1       26.224 -17.094   2.566  0.00  0.00    -0.306 NA
ATOM     21  H   LIG    1       25.997 -17.080   1.578  0.00  0.00    +0.123 HD
BRANCH  20  22
ATOM     22  C   LIG    1       26.331 -15.717   3.073  0.00  0.00    +0.082 C 
BRANCH  22  23
ATOM     23  C   LIG    1       27.695 -15.474   3.727  0.00  0.00    +0.015 C 
BRANCH  23  24
ATOM     24  C   LIG    1       27.888 -13.987   4.068  0.00  0.00    +0.001 C 
BRANCH  24  25
ATOM     25  C   LIG    1       26.852 -13.488   5.085  0.00  0.00    +0.001 C 
BRANCH  25  26
ATOM     26  C   LIG    1       26.143 -12.212   4.609  0.00  0.00    +0.011 C 
BRANCH  26  27
ATOM     27  C   LIG    1       25.611 -12.341   3.181  0.00  0.00    +0.120 C 
BRANCH  27  28
ATOM     28  C   LIG    1       24.176 -11.886   3.085  0.00  0.00    +0.305 C 
ATOM     29  O   LIG    1       23.430 -11.638   4.015  0.00  0.00    -0.251 OA
BRANCH  28  30
ATOM     30  O   LIG    1       23.748 -11.778   1.812  0.00  0.00    -0.481 OA
ATOM     31  H   LIG    1       23.142 -11.008   1.822  0.00  0.00    +0.295 HD
ENDBRANCH  28  30
ENDBRANCH  27  28
ENDBRANCH  26  27
ENDBRANCH  25  26
ENDBRANCH  24  25
ENDBRANCH  23  24
ENDBRANCH  22  23
ENDBRANCH  20  22
ENDBRANCH  12  20
TORSDOF 9
ENDMDL
