MODEL 1
REMARK VINA RESULT:      -5.5      0.000      0.000
REMARK  Name = *****
REMARK                            x       y       z     vdW  Elec       q    Type
REMARK                         _______ _______ _______ _____ _____    ______ ____
ROOT
ATOM      1  C   LIG    1       25.937 -26.927   5.982  0.00  0.00    +0.242 C 
ATOM      2  C   LIG    1       26.430 -28.191   6.788  0.00  0.00    +0.195 C 
ATOM      3  S   LIG    1       26.242 -28.196   8.614  0.00  0.00    -0.125 S 
ATOM      4  C   LIG    1       25.227 -29.747   8.606  0.00  0.00    +0.042 C 
ATOM      5  C   LIG    1       24.435 -29.672   7.288  0.00  0.00    +0.201 C 
ATOM      6  C   LIG    1       24.306 -29.698   9.829  0.00  0.00    +0.025 C 
ATOM      7  C   LIG    1       26.179 -30.947   8.703  0.00  0.00    +0.025 C 
ATOM      8  N   LIG    1       25.250 -28.950   6.297  0.00  0.00    -0.266 N 
ATOM      9  C   LIG    1       24.686 -27.850   5.706  0.00  0.00    +0.271 C 
ATOM     10  O   LIG    1       23.543 -27.691   5.305  0.00  0.00    -0.270 OA
ENDROOT
BRANCH   1  11
ATOM     11  N   LIG    1       25.598 -25.720   6.806  0.00  0.00    -0.277 N 
ATOM     12  H   LIG    1       25.639 -25.810   7.814  0.00  0.00    +0.152 HD
ATOM     13  C   LIG    1       25.153 -24.539   6.241  0.00  0.00    +0.234 C 
ATOM     14  O   LIG    1       25.021 -24.403   5.026  0.00  0.00    -0.275 OA
BRANCH  13  15
ATOM     15  C   LIG    1       24.867 -23.407   7.230  0.00  0.00    +0.213 C 
BRANCH  15  16
ATOM     16  C   LIG    1       25.852 -22.261   7.053  0.00  0.00    -0.018 A 
ATOM     17  C   LIG    1       26.885 -21.969   7.927  0.00  0.00    +0.050 A 
ATOM     18  S   LIG    1       27.732 -20.543   7.501  0.00  0.00    -0.105 S 
ATOM     19  C   LIG    1       26.744 -20.294   6.132  0.00  0.00    +0.045 A 
ATOM     20  C   LIG    1       25.809 -21.292   5.986  0.00  0.00    +0.012 A 
ENDBRANCH  15  16
BRANCH  15  21
ATOM     21  C   LIG    1       23.405 -22.980   7.160  0.00  0.00    +0.321 C 
ATOM     22  O   LIG    1       23.014 -21.911   7.620  0.00  0.00    -0.250 OA
BRANCH  21  23
ATOM     23  O   LIG    1       22.543 -23.787   6.499  0.00  0.00    -0.480 OA
ATOM     24  H   LIG    1       22.276 -23.501   5.604  0.00  0.00    +0.295 HD
ENDBRANCH  21  23
ENDBRANCH  15  21
ENDBRANCH  13  15
ENDBRANCH   1  11
BRANCH   1  26
ATOM     25  C   LIG    1       27.890 -27.354   4.567  0.00  0.00    +0.197 C 
ATOM     26  O   LIG    1       26.681 -26.631   4.767  0.00  0.00    -0.349 OA
ENDBRANCH   1  26
BRANCH   5  27
ATOM     27  C   LIG    1       23.999 -31.042   6.765  0.00  0.00    +0.327 C 
ATOM     28  O   LIG    1       23.306 -31.824   7.399  0.00  0.00    -0.249 OA
BRANCH  27  29
ATOM     29  O   LIG    1       24.485 -31.339   5.535  0.00  0.00    -0.479 OA
ATOM     30  H   LIG    1       23.784 -31.255   4.855  0.00  0.00    +0.295 HD
ENDBRANCH  27  29
ENDBRANCH   5  27
TORSDOF 8
ENDMDL
MODEL 2
REMARK VINA RESULT:      -5.3      5.011      7.763
REMARK  Name = *****
REMARK                            x       y       z     vdW  Elec       q    Type
REMARK                         _______ _______ _______ _____ _____    ______ ____
ROOT
ATOM      1  C   LIG    1       24.868 -31.403  10.246  0.00  0.00    +0.242 C 
ATOM      2  C   LIG    1       25.690 -30.972  11.522  0.00  0.00    +0.195 C 
ATOM      3  S   LIG    1       26.999 -29.699  11.334  0.00  0.00    -0.125 S 
ATOM      4  C   LIG    1       26.228 -28.575  12.589  0.00  0.00    +0.042 C 
ATOM      5  C   LIG    1       24.716 -28.816  12.433  0.00  0.00    +0.201 C 
ATOM      6  C   LIG    1       26.617 -27.140  12.220  0.00  0.00    +0.025 C 
ATOM      7  C   LIG    1       26.786 -28.940  13.971  0.00  0.00    +0.025 C 
ATOM      8  N   LIG    1       24.510 -30.212  12.011  0.00  0.00    -0.266 N 
ATOM      9  C   LIG    1       23.797 -30.418  10.859  0.00  0.00    +0.271 C 
ATOM     10  O   LIG    1       22.792 -29.849  10.462  0.00  0.00    -0.270 OA
ENDROOT
BRANCH   1  11
ATOM     11  N   LIG    1       25.409 -30.927   8.930  0.00  0.00    -0.277 N 
ATOM     12  H   LIG    1       26.306 -30.457   8.931  0.00  0.00    +0.152 HD
ATOM     13  C   LIG    1       24.691 -31.030   7.753  0.00  0.00    +0.234 C 
ATOM     14  O   LIG    1       23.568 -31.531   7.713  0.00  0.00    -0.275 OA
BRANCH  13  15
ATOM     15  C   LIG    1       25.402 -30.506   6.503  0.00  0.00    +0.213 C 
BRANCH  15  16
ATOM     16  C   LIG    1       25.961 -31.649   5.671  0.00  0.00    -0.018 A 
ATOM     17  C   LIG    1       26.884 -32.576   6.125  0.00  0.00    +0.050 A 
ATOM     18  S   LIG    1       27.398 -33.658   4.901  0.00  0.00    -0.105 S 
ATOM     19  C   LIG    1       26.388 -32.918   3.741  0.00  0.00    +0.045 A 
ATOM     20  C   LIG    1       25.653 -31.890   4.283  0.00  0.00    +0.012 A 
ENDBRANCH  15  16
BRANCH  15  21
ATOM     21  C   LIG    1       24.500 -29.558   5.722  0.00  0.00    +0.321 C 
ATOM     22  O   LIG    1       24.938 -28.566   5.147  0.00  0.00    -0.250 OA
BRANCH  21  23
ATOM     23  O   LIG    1       23.190 -29.880   5.612  0.00  0.00    -0.480 OA
ATOM     24  H   LIG    1       22.674 -29.387   4.945  0.00  0.00    +0.295 HD
ENDBRANCH  21  23
ENDBRANCH  15  21
ENDBRANCH  13  15
ENDBRANCH   1  11
BRANCH   1  26
ATOM     25  C   LIG    1       25.344 -33.773  10.644  0.00  0.00    +0.197 C 
ATOM     26  O   LIG    1       24.405 -32.783  10.238  0.00  0.00    -0.349 OA
ENDBRANCH   1  26
BRANCH   5  27
ATOM     27  C   LIG    1       23.915 -28.487  13.694  0.00  0.00    +0.327 C 
ATOM     28  O   LIG    1       23.730 -27.351  14.106  0.00  0.00    -0.249 OA
BRANCH  27  29
ATOM     29  O   LIG    1       23.455 -29.579  14.351  0.00  0.00    -0.479 OA
ATOM     30  H   LIG    1       23.902 -30.391  14.033  0.00  0.00    +0.295 HD
ENDBRANCH  27  29
ENDBRANCH   5  27
TORSDOF 8
ENDMDL
MODEL 3
REMARK VINA RESULT:      -5.3      3.936      6.480
REMARK  Name = *****
REMARK                            x       y       z     vdW  Elec       q    Type
REMARK                         _______ _______ _______ _____ _____    ______ ____
ROOT
ATOM      1  C   LIG    1       26.133 -30.540  10.392  0.00  0.00    +0.242 C 
ATOM      2  C   LIG    1       25.480 -30.068  11.748  0.00  0.00    +0.195 C 
ATOM      3  S   LIG    1       23.714 -29.565  11.744  0.00  0.00    -0.125 S 
ATOM      4  C   LIG    1       23.249 -30.819  13.027  0.00  0.00    +0.042 C 
ATOM      5  C   LIG    1       24.191 -32.005  12.754  0.00  0.00    +0.201 C 
ATOM      6  C   LIG    1       21.781 -31.190  12.795  0.00  0.00    +0.025 C 
ATOM      7  C   LIG    1       23.425 -30.180  14.412  0.00  0.00    +0.025 C 
ATOM      8  N   LIG    1       25.456 -31.479  12.215  0.00  0.00    -0.266 N 
ATOM      9  C   LIG    1       25.874 -31.971  11.005  0.00  0.00    +0.271 C 
ATOM     10  O   LIG    1       25.841 -33.118  10.588  0.00  0.00    -0.270 OA
ENDROOT
BRANCH   1  11
ATOM     11  N   LIG    1       25.325 -30.284   9.154  0.00  0.00    -0.277 N 
ATOM     12  H   LIG    1       24.709 -31.021   8.831  0.00  0.00    +0.152 HD
ATOM     13  C   LIG    1       25.461 -29.129   8.407  0.00  0.00    +0.234 C 
ATOM     14  O   LIG    1       26.244 -28.235   8.720  0.00  0.00    -0.275 OA
BRANCH  13  15
ATOM     15  C   LIG    1       24.547 -29.029   7.183  0.00  0.00    +0.213 C 
BRANCH  15  16
ATOM     16  C   LIG    1       24.920 -27.837   6.316  0.00  0.00    -0.018 A 
ATOM     17  C   LIG    1       24.350 -26.579   6.418  0.00  0.00    +0.050 A 
ATOM     18  S   LIG    1       24.907 -25.497   5.213  0.00  0.00    -0.105 S 
ATOM     19  C   LIG    1       25.931 -26.683   4.538  0.00  0.00    +0.045 A 
ATOM     20  C   LIG    1       25.873 -27.867   5.233  0.00  0.00    +0.012 A 
ENDBRANCH  15  16
BRANCH  15  21
ATOM     21  C   LIG    1       24.504 -30.352   6.428  0.00  0.00    +0.321 C 
ATOM     22  O   LIG    1       25.427 -31.159   6.472  0.00  0.00    -0.250 OA
BRANCH  21  23
ATOM     23  O   LIG    1       23.370 -30.658   5.755  0.00  0.00    -0.480 OA
ATOM     24  H   LIG    1       22.813 -31.364   6.135  0.00  0.00    +0.295 HD
ENDBRANCH  21  23
ENDBRANCH  15  21
ENDBRANCH  13  15
ENDBRANCH   1  11
BRANCH   1  26
ATOM     25  C   LIG    1       28.151 -29.466  11.273  0.00  0.00    +0.197 C 
ATOM     26  O   LIG    1       27.553 -30.252  10.248  0.00  0.00    -0.349 OA
ENDBRANCH   1  26
BRANCH   5  27
ATOM     27  C   LIG    1       24.428 -32.887  13.981  0.00  0.00    +0.327 C 
ATOM     28  O   LIG    1       23.579 -33.620  14.467  0.00  0.00    -0.249 OA
BRANCH  27  29
ATOM     29  O   LIG    1       25.665 -32.757  14.519  0.00  0.00    -0.479 OA
ATOM     30  H   LIG    1       25.649 -32.143  15.283  0.00  0.00    +0.295 HD
ENDBRANCH  27  29
ENDBRANCH   5  27
TORSDOF 8
ENDMDL
MODEL 4
REMARK VINA RESULT:      -5.3      5.795      7.384
REMARK  Name = *****
REMARK                            x       y       z     vdW  Elec       q    Type
REMARK                         _______ _______ _______ _____ _____    ______ ____
ROOT
ATOM      1  C   LIG    1       25.654 -30.317  12.020  0.00  0.00    +0.242 C 
ATOM      2  C   LIG    1       24.822 -31.160  10.977  0.00  0.00    +0.195 C 
ATOM      3  S   LIG    1       23.627 -30.284   9.893  0.00  0.00    -0.125 S 
ATOM      4  C   LIG    1       24.440 -30.887   8.340  0.00  0.00    +0.042 C 
ATOM      5  C   LIG    1       25.932 -30.977   8.706  0.00  0.00    +0.201 C 
ATOM      6  C   LIG    1       24.181 -29.841   7.251  0.00  0.00    +0.025 C 
ATOM      7  C   LIG    1       23.802 -32.229   7.953  0.00  0.00    +0.025 C 
ATOM      8  N   LIG    1       26.040 -31.302  10.138  0.00  0.00    -0.266 N 
ATOM      9  C   LIG    1       26.777 -30.450  10.919  0.00  0.00    +0.271 C 
ATOM     10  O   LIG    1       27.839 -29.901  10.670  0.00  0.00    -0.270 OA
ENDROOT
BRANCH   1  11
ATOM     11  N   LIG    1       25.203 -28.900  12.221  0.00  0.00    -0.277 N 
ATOM     12  H   LIG    1       25.731 -28.167  11.763  0.00  0.00    +0.152 HD
ATOM     13  C   LIG    1       24.163 -28.567  13.070  0.00  0.00    +0.234 C 
ATOM     14  O   LIG    1       23.536 -29.416  13.700  0.00  0.00    -0.275 OA
BRANCH  13  15
ATOM     15  C   LIG    1       23.829 -27.075  13.143  0.00  0.00    +0.213 C 
BRANCH  15  16
ATOM     16  C   LIG    1       22.460 -26.849  13.764  0.00  0.00    -0.018 A 
ATOM     17  C   LIG    1       22.238 -26.558  15.099  0.00  0.00    +0.050 A 
ATOM     18  S   LIG    1       20.575 -26.485  15.497  0.00  0.00    -0.105 S 
ATOM     19  C   LIG    1       20.115 -26.827  13.890  0.00  0.00    +0.045 A 
ATOM     20  C   LIG    1       21.205 -26.964  13.063  0.00  0.00    +0.012 A 
ENDBRANCH  15  16
BRANCH  15  21
ATOM     21  C   LIG    1       24.951 -26.301  13.825  0.00  0.00    +0.321 C 
ATOM     22  O   LIG    1       25.829 -26.861  14.475  0.00  0.00    -0.250 OA
BRANCH  21  23
ATOM     23  O   LIG    1       25.003 -24.963  13.633  0.00  0.00    -0.480 OA
ATOM     24  H   LIG    1       24.538 -24.408  14.290  0.00  0.00    +0.295 HD
ENDBRANCH  21  23
ENDBRANCH  15  21
ENDBRANCH  13  15
ENDBRANCH   1  11
BRANCH   1  26
ATOM     25  C   LIG    1       27.050 -30.446  14.028  0.00  0.00    +0.197 C 
ATOM     26  O   LIG    1       26.003 -31.013  13.250  0.00  0.00    -0.349 OA
ENDBRANCH   1  26
BRANCH   5  27
ATOM     27  C   LIG    1       26.708 -31.975   7.844  0.00  0.00    +0.327 C 
ATOM     28  O   LIG    1       27.225 -32.994   8.280  0.00  0.00    -0.249 OA
BRANCH  27  29
ATOM     29  O   LIG    1       26.813 -31.611   6.543  0.00  0.00    -0.479 OA
ATOM     30  H   LIG    1       26.863 -32.400   5.964  0.00  0.00    +0.295 HD
ENDBRANCH  27  29
ENDBRANCH   5  27
TORSDOF 8
ENDMDL
MODEL 5
REMARK VINA RESULT:      -4.9      2.021      7.696
REMARK  Name = *****
REMARK                            x       y       z     vdW  Elec       q    Type
REMARK                         _______ _______ _______ _____ _____    ______ ____
ROOT
ATOM      1  C   LIG    1       24.353 -24.021   6.787  0.00  0.00    +0.242 C 
ATOM      2  C   LIG    1       24.867 -22.712   7.503  0.00  0.00    +0.195 C 
ATOM      3  S   LIG    1       26.575 -22.692   8.176  0.00  0.00    -0.125 S 
ATOM      4  C   LIG    1       27.065 -21.221   7.162  0.00  0.00    +0.042 C 
ATOM      5  C   LIG    1       26.258 -21.373   5.860  0.00  0.00    +0.201 C 
ATOM      6  C   LIG    1       28.574 -21.317   6.912  0.00  0.00    +0.025 C 
ATOM      7  C   LIG    1       26.738 -19.953   7.963  0.00  0.00    +0.025 C 
ATOM      8  N   LIG    1       24.989 -22.050   6.178  0.00  0.00    -0.266 N 
ATOM      9  C   LIG    1       24.702 -23.197   5.486  0.00  0.00    +0.271 C 
ATOM     10  O   LIG    1       24.868 -23.445   4.302  0.00  0.00    -0.270 OA
ENDROOT
BRANCH   1  11
ATOM     11  N   LIG    1       25.217 -25.237   6.953  0.00  0.00    -0.277 N 
ATOM     12  H   LIG    1       26.044 -25.153   7.533  0.00  0.00    +0.152 HD
ATOM     13  C   LIG    1       24.970 -26.419   6.278  0.00  0.00    +0.234 C 
ATOM     14  O   LIG    1       24.019 -26.547   5.511  0.00  0.00    -0.275 OA
BRANCH  13  15
ATOM     15  C   LIG    1       25.945 -27.560   6.578  0.00  0.00    +0.213 C 
BRANCH  15  16
ATOM     16  C   LIG    1       25.381 -28.500   7.632  0.00  0.00    -0.018 A 
ATOM     17  C   LIG    1       25.968 -28.748   8.861  0.00  0.00    +0.050 A 
ATOM     18  S   LIG    1       25.143 -29.948   9.762  0.00  0.00    -0.105 S 
ATOM     19  C   LIG    1       23.978 -30.153   8.534  0.00  0.00    +0.045 A 
ATOM     20  C   LIG    1       24.194 -29.303   7.474  0.00  0.00    +0.012 A 
ENDBRANCH  15  16
BRANCH  15  21
ATOM     21  C   LIG    1       26.373 -28.260   5.293  0.00  0.00    +0.321 C 
ATOM     22  O   LIG    1       25.853 -29.305   4.915  0.00  0.00    -0.250 OA
BRANCH  21  23
ATOM     23  O   LIG    1       27.306 -27.652   4.524  0.00  0.00    -0.480 OA
ATOM     24  H   LIG    1       27.102 -26.745   4.223  0.00  0.00    +0.295 HD
ENDBRANCH  21  23
ENDBRANCH  15  21
ENDBRANCH  13  15
ENDBRANCH   1  11
BRANCH   1  26
ATOM     25  C   LIG    1       22.053 -23.194   6.627  0.00  0.00    +0.197 C 
ATOM     26  O   LIG    1       22.926 -24.281   6.909  0.00  0.00    -0.349 OA
ENDBRANCH   1  26
BRANCH   5  27
ATOM     27  C   LIG    1       26.021 -20.048   5.135  0.00  0.00    +0.327 C 
ATOM     28  O   LIG    1       24.912 -19.577   4.923  0.00  0.00    -0.249 OA
BRANCH  27  29
ATOM     29  O   LIG    1       27.156 -19.447   4.704  0.00  0.00    -0.479 OA
ATOM     30  H   LIG    1       27.245 -18.552   5.092  0.00  0.00    +0.295 HD
ENDBRANCH  27  29
ENDBRANCH   5  27
TORSDOF 8
ENDMDL
MODEL 6
REMARK VINA RESULT:      -4.8      5.098      7.894
REMARK  Name = *****
REMARK                            x       y       z     vdW  Elec       q    Type
REMARK                         _______ _______ _______ _____ _____    ______ ____
ROOT
ATOM      1  C   LIG    1       23.265 -31.566  11.455  0.00  0.00    +0.242 C 
ATOM      2  C   LIG    1       23.255 -30.860  12.865  0.00  0.00    +0.195 C 
ATOM      3  S   LIG    1       24.355 -29.415  13.132  0.00  0.00    -0.125 S 
ATOM      4  C   LIG    1       22.947 -28.301  13.592  0.00  0.00    +0.042 C 
ATOM      5  C   LIG    1       21.769 -28.809  12.742  0.00  0.00    +0.201 C 
ATOM      6  C   LIG    1       23.350 -26.872  13.213  0.00  0.00    +0.025 C 
ATOM      7  C   LIG    1       22.724 -28.407  15.107  0.00  0.00    +0.025 C 
ATOM      8  N   LIG    1       21.934 -30.259  12.541  0.00  0.00    -0.266 N 
ATOM      9  C   LIG    1       21.954 -30.713  11.248  0.00  0.00    +0.271 C 
ATOM     10  O   LIG    1       21.263 -30.370  10.301  0.00  0.00    -0.270 OA
ENDROOT
BRANCH   1  11
ATOM     11  N   LIG    1       24.375 -31.160  10.530  0.00  0.00    -0.277 N 
ATOM     12  H   LIG    1       25.089 -30.539  10.893  0.00  0.00    +0.152 HD
ATOM     13  C   LIG    1       24.402 -31.528   9.197  0.00  0.00    +0.234 C 
ATOM     14  O   LIG    1       23.522 -32.223   8.693  0.00  0.00    -0.275 OA
BRANCH  13  15
ATOM     15  C   LIG    1       25.615 -31.036   8.406  0.00  0.00    +0.213 C 
BRANCH  15  16
ATOM     16  C   LIG    1       25.198 -30.072   7.305  0.00  0.00    -0.018 A 
ATOM     17  C   LIG    1       25.469 -30.250   5.959  0.00  0.00    +0.050 A 
ATOM     18  S   LIG    1       24.969 -28.923   5.000  0.00  0.00    -0.105 S 
ATOM     19  C   LIG    1       24.369 -28.089   6.361  0.00  0.00    +0.045 A 
ATOM     20  C   LIG    1       24.518 -28.819   7.517  0.00  0.00    +0.012 A 
ENDBRANCH  15  16
BRANCH  15  21
ATOM     21  C   LIG    1       26.684 -30.480   9.340  0.00  0.00    +0.321 C 
ATOM     22  O   LIG    1       27.175 -31.151  10.243  0.00  0.00    -0.250 OA
BRANCH  21  23
ATOM     23  O   LIG    1       27.144 -29.230   9.100  0.00  0.00    -0.480 OA
ATOM     24  H   LIG    1       28.057 -29.158   8.761  0.00  0.00    +0.295 HD
ENDBRANCH  21  23
ENDBRANCH  15  21
ENDBRANCH  13  15
ENDBRANCH   1  11
BRANCH   1  26
ATOM     25  C   LIG    1       23.928 -33.815  12.165  0.00  0.00    +0.197 C 
ATOM     26  O   LIG    1       22.995 -32.997  11.469  0.00  0.00    -0.349 OA
ENDBRANCH   1  26
BRANCH   5  27
ATOM     27  C   LIG    1       20.401 -28.478  13.341  0.00  0.00    +0.327 C 
ATOM     28  O   LIG    1       19.762 -29.247  14.045  0.00  0.00    -0.249 OA
BRANCH  27  29
ATOM     29  O   LIG    1       19.929 -27.258  12.989  0.00  0.00    -0.479 OA
ATOM     30  H   LIG    1       19.177 -26.998  13.560  0.00  0.00    +0.295 HD
ENDBRANCH  27  29
ENDBRANCH   5  27
TORSDOF 8
ENDMDL
MODEL 7
REMARK VINA RESULT:      -4.8      4.954      8.134
REMARK  Name = *****
REMARK                            x       y       z     vdW  Elec       q    Type
REMARK                         _______ _______ _______ _____ _____    ______ ____
ROOT
ATOM      1  C   LIG    1       26.435 -21.803   7.448  0.00  0.00    +0.242 C 
ATOM      2  C   LIG    1       27.907 -21.513   6.960  0.00  0.00    +0.195 C 
ATOM      3  S   LIG    1       28.161 -20.293   5.613  0.00  0.00    -0.125 S 
ATOM      4  C   LIG    1       29.281 -19.236   6.644  0.00  0.00    +0.042 C 
ATOM      5  C   LIG    1       28.735 -19.393   8.075  0.00  0.00    +0.201 C 
ATOM      6  C   LIG    1       29.149 -17.797   6.138  0.00  0.00    +0.025 C 
ATOM      7  C   LIG    1       30.720 -19.736   6.459  0.00  0.00    +0.025 C 
ATOM      8  N   LIG    1       28.154 -20.740   8.205  0.00  0.00    -0.266 N 
ATOM      9  C   LIG    1       26.848 -20.820   8.612  0.00  0.00    +0.271 C 
ATOM     10  O   LIG    1       26.268 -20.175   9.471  0.00  0.00    -0.270 OA
ENDROOT
BRANCH   1  11
ATOM     11  N   LIG    1       25.340 -21.251   6.583  0.00  0.00    -0.277 N 
ATOM     12  H   LIG    1       25.601 -20.851   5.689  0.00  0.00    +0.152 HD
ATOM     13  C   LIG    1       24.024 -21.191   7.001  0.00  0.00    +0.234 C 
ATOM     14  O   LIG    1       23.669 -21.600   8.105  0.00  0.00    -0.275 OA
BRANCH  13  15
ATOM     15  C   LIG    1       23.039 -20.610   5.984  0.00  0.00    +0.213 C 
BRANCH  15  16
ATOM     16  C   LIG    1       23.771 -19.908   4.851  0.00  0.00    -0.018 A 
ATOM     17  C   LIG    1       24.797 -20.469   4.110  0.00  0.00    +0.050 A 
ATOM     18  S   LIG    1       25.487 -19.371   2.992  0.00  0.00    -0.105 S 
ATOM     19  C   LIG    1       24.420 -18.127   3.465  0.00  0.00    +0.045 A 
ATOM     20  C   LIG    1       23.537 -18.548   4.432  0.00  0.00    +0.012 A 
ENDBRANCH  15  16
BRANCH  15  21
ATOM     21  C   LIG    1       22.051 -21.672   5.516  0.00  0.00    +0.321 C 
ATOM     22  O   LIG    1       21.185 -21.435   4.679  0.00  0.00    -0.250 OA
BRANCH  21  23
ATOM     23  O   LIG    1       22.199 -22.928   5.998  0.00  0.00    -0.480 OA
ATOM     24  H   LIG    1       21.531 -23.584   5.721  0.00  0.00    +0.295 HD
ENDBRANCH  21  23
ENDBRANCH  15  21
ENDBRANCH  13  15
ENDBRANCH   1  11
BRANCH   1  26
ATOM     25  C   LIG    1       25.919 -24.144   6.943  0.00  0.00    +0.197 C 
ATOM     26  O   LIG    1       26.190 -23.155   7.929  0.00  0.00    -0.349 OA
ENDBRANCH   1  26
BRANCH   5  27
ATOM     27  C   LIG    1       29.784 -19.128   9.157  0.00  0.00    +0.327 C 
ATOM     28  O   LIG    1       30.587 -19.964   9.546  0.00  0.00    -0.249 OA
BRANCH  27  29
ATOM     29  O   LIG    1       29.724 -17.882   9.685  0.00  0.00    -0.479 OA
ATOM     30  H   LIG    1       30.309 -17.807  10.467  0.00  0.00    +0.295 HD
ENDBRANCH  27  29
ENDBRANCH   5  27
TORSDOF 8
ENDMDL
MODEL 8
REMARK VINA RESULT:      -4.8      4.587      7.413
REMARK  Name = *****
REMARK                            x       y       z     vdW  Elec       q    Type
REMARK                         _______ _______ _______ _____ _____    ______ ____
ROOT
ATOM      1  C   LIG    1       24.598 -31.406  10.854  0.00  0.00    +0.242 C 
ATOM      2  C   LIG    1       25.625 -30.889  11.933  0.00  0.00    +0.195 C 
ATOM      3  S   LIG    1       26.952 -29.738  11.401  0.00  0.00    -0.125 S 
ATOM      4  C   LIG    1       26.438 -28.428  12.608  0.00  0.00    +0.042 C 
ATOM      5  C   LIG    1       24.910 -28.583  12.704  0.00  0.00    +0.201 C 
ATOM      6  C   LIG    1       26.838 -27.074  12.013  0.00  0.00    +0.025 C 
ATOM      7  C   LIG    1       27.182 -28.671  13.928  0.00  0.00    +0.025 C 
ATOM      8  N   LIG    1       24.573 -30.000  12.492  0.00  0.00    -0.266 N 
ATOM      9  C   LIG    1       23.683 -30.288  11.489  0.00  0.00    +0.271 C 
ATOM     10  O   LIG    1       22.659 -29.701  11.177  0.00  0.00    -0.270 OA
ENDROOT
BRANCH   1  11
ATOM     11  N   LIG    1       24.954 -31.122   9.424  0.00  0.00    -0.277 N 
ATOM     12  H   LIG    1       25.881 -30.759   9.232  0.00  0.00    +0.152 HD
ATOM     13  C   LIG    1       24.043 -31.252   8.393  0.00  0.00    +0.234 C 
ATOM     14  O   LIG    1       22.887 -31.624   8.584  0.00  0.00    -0.275 OA
BRANCH  13  15
ATOM     15  C   LIG    1       24.583 -30.933   6.997  0.00  0.00    +0.213 C 
BRANCH  15  16
ATOM     16  C   LIG    1       24.728 -29.433   6.795  0.00  0.00    -0.018 A 
ATOM     17  C   LIG    1       24.098 -28.708   5.798  0.00  0.00    +0.050 A 
ATOM     18  S   LIG    1       24.570 -27.062   5.773  0.00  0.00    -0.105 S 
ATOM     19  C   LIG    1       25.617 -27.281   7.102  0.00  0.00    +0.045 A 
ATOM     20  C   LIG    1       25.584 -28.572   7.573  0.00  0.00    +0.012 A 
ENDBRANCH  15  16
BRANCH  15  21
ATOM     21  C   LIG    1       25.858 -31.720   6.714  0.00  0.00    +0.321 C 
ATOM     22  O   LIG    1       26.227 -32.645   7.432  0.00  0.00    -0.250 OA
BRANCH  21  23
ATOM     23  O   LIG    1       26.550 -31.420   5.591  0.00  0.00    -0.480 OA
ATOM     24  H   LIG    1       27.481 -31.151   5.709  0.00  0.00    +0.295 HD
ENDBRANCH  21  23
ENDBRANCH  15  21
ENDBRANCH  13  15
ENDBRANCH   1  11
BRANCH   1  26
ATOM     25  C   LIG    1       24.993 -33.822  10.960  0.00  0.00    +0.197 C 
ATOM     26  O   LIG    1       24.071 -32.744  11.082  0.00  0.00    -0.349 OA
ENDBRANCH   1  26
BRANCH   5  27
ATOM     27  C   LIG    1       24.329 -28.059  14.019  0.00  0.00    +0.327 C 
ATOM     28  O   LIG    1       24.271 -26.874  14.313  0.00  0.00    -0.249 OA
BRANCH  27  29
ATOM     29  O   LIG    1       23.914 -29.035  14.862  0.00  0.00    -0.479 OA
ATOM     30  H   LIG    1       23.233 -29.597  14.435  0.00  0.00    +0.295 HD
ENDBRANCH  27  29
ENDBRANCH   5  27
TORSDOF 8
ENDMDL
MODEL 9
REMARK VINA RESULT:      -4.7      6.003      8.664
REMARK  Name = *****
REMARK                            x       y       z     vdW  Elec       q    Type
REMARK                         _______ _______ _______ _____ _____    ______ ____
ROOT
ATOM      1  C   LIG    1       24.213 -30.774  13.235  0.00  0.00    +0.242 C 
ATOM      2  C   LIG    1       24.866 -31.455  11.970  0.00  0.00    +0.195 C 
ATOM      3  S   LIG    1       23.838 -31.679  10.465  0.00  0.00    -0.125 S 
ATOM      4  C   LIG    1       25.007 -30.713   9.400  0.00  0.00    +0.042 C 
ATOM      5  C   LIG    1       25.585 -29.645  10.347  0.00  0.00    +0.201 C 
ATOM      6  C   LIG    1       24.186 -30.087   8.268  0.00  0.00    +0.025 C 
ATOM      7  C   LIG    1       26.051 -31.681   8.828  0.00  0.00    +0.025 C 
ATOM      8  N   LIG    1       25.630 -30.207  11.707  0.00  0.00    -0.266 N 
ATOM      9  C   LIG    1       24.985 -29.508  12.694  0.00  0.00    +0.271 C 
ATOM     10  O   LIG    1       24.946 -28.302  12.884  0.00  0.00    -0.270 OA
ENDROOT
BRANCH   1  11
ATOM     11  N   LIG    1       22.722 -30.608  13.190  0.00  0.00    -0.277 N 
ATOM     12  H   LIG    1       22.230 -30.982  12.387  0.00  0.00    +0.152 HD
ATOM     13  C   LIG    1       22.027 -29.896  14.149  0.00  0.00    +0.234 C 
ATOM     14  O   LIG    1       22.588 -29.365  15.105  0.00  0.00    -0.275 OA
BRANCH  13  15
ATOM     15  C   LIG    1       20.510 -29.841  13.953  0.00  0.00    +0.213 C 
BRANCH  15  16
ATOM     16  C   LIG    1       20.022 -28.405  13.845  0.00  0.00    -0.018 A 
ATOM     17  C   LIG    1       18.864 -27.920  14.428  0.00  0.00    +0.050 A 
ATOM     18  S   LIG    1       18.541 -26.291  14.011  0.00  0.00    -0.105 S 
ATOM     19  C   LIG    1       19.949 -26.195  13.052  0.00  0.00    +0.045 A 
ATOM     20  C   LIG    1       20.665 -27.369  13.074  0.00  0.00    +0.012 A 
ENDBRANCH  15  16
BRANCH  15  21
ATOM     21  C   LIG    1       20.080 -30.728  12.790  0.00  0.00    +0.321 C 
ATOM     22  O   LIG    1       19.778 -31.907  12.945  0.00  0.00    -0.250 OA
BRANCH  21  23
ATOM     23  O   LIG    1       19.963 -30.155  11.569  0.00  0.00    -0.480 OA
ATOM     24  H   LIG    1       20.312 -30.665  10.812  0.00  0.00    +0.295 HD
ENDBRANCH  21  23
ENDBRANCH  15  21
ENDBRANCH  13  15
ENDBRANCH   1  11
BRANCH   1  26
ATOM     25  C   LIG    1       24.610 -32.614  14.803  0.00  0.00    +0.197 C 
ATOM     26  O   LIG    1       24.725 -31.224  14.521  0.00  0.00    -0.349 OA
ENDBRANCH   1  26
BRANCH   5  27
ATOM     27  C   LIG    1       26.955 -29.125   9.910  0.00  0.00    +0.327 C 
ATOM     28  O   LIG    1       27.994 -29.351  10.514  0.00  0.00    -0.249 OA
BRANCH  27  29
ATOM     29  O   LIG    1       26.918 -28.347   8.801  0.00  0.00    -0.479 OA
ATOM     30  H   LIG    1       27.457 -27.538   8.926  0.00  0.00    +0.295 HD
ENDBRANCH  27  29
ENDBRANCH   5  27
TORSDOF 8
ENDMDL
