MODEL 1
REMARK VINA RESULT:      -4.0      0.000      0.000
REMARK  Name = *****
REMARK                            x       y       z     vdW  Elec       q    Type
REMARK                         _______ _______ _______ _____ _____    ______ ____
ROOT
ATOM      1  C   LIG    1       27.224 -17.071   3.752  0.00  0.00    +0.162 C 
ENDROOT
BRANCH   1   2
ATOM      2  C   LIG    1       27.720 -18.134   4.738  0.00  0.00    -0.007 A 
ATOM      3  C   LIG    1       26.909 -19.253   5.099  0.00  0.00    +0.009 A 
ATOM      4  C   LIG    1       27.485 -20.239   5.941  0.00  0.00    +0.071 A 
ATOM      5  C   LIG    1       26.730 -21.335   6.326  0.00  0.00    +0.032 A 
ATOM      6  C   LIG    1       25.409 -21.497   5.912  0.00  0.00    +0.048 A 
ATOM      7  C   LIG    1       24.828 -20.559   5.070  0.00  0.00    +0.121 A 
ATOM      8  N   LIG    1       28.739 -20.177   6.402  0.00  0.00    -0.255 NA
ATOM      9  C   LIG    1       29.475 -19.106   6.068  0.00  0.00    +0.112 A 
ATOM     10  C   LIG    1       25.567 -19.442   4.676  0.00  0.00    +0.056 A 
ATOM     11  C   LIG    1       29.011 -18.072   5.281  0.00  0.00    +0.026 A 
BRANCH   7  12
ATOM     12  O   LIG    1       23.527 -20.805   4.730  0.00  0.00    -0.495 OA
ATOM     13  C   LIG    1       22.591 -19.823   5.162  0.00  0.00    +0.277 C 
ENDBRANCH   7  12
ENDBRANCH   1   2
BRANCH   1  17
ATOM     14  C   LIG    1       24.851 -13.356   4.356  0.00  0.00    +0.028 C 
ATOM     15  C   LIG    1       24.743 -14.324   3.145  0.00  0.00    -0.000 C 
ATOM     16  C   LIG    1       24.976 -15.763   3.664  0.00  0.00    +0.026 C 
ATOM     17  C   LIG    1       26.386 -15.865   4.319  0.00  0.00    +0.090 C 
ATOM     18  N   LIG    1       27.063 -14.536   4.269  0.00  0.00    -0.296 NA
ATOM     19  C   LIG    1       27.219 -14.070   2.878  0.00  0.00    +0.085 C 
ATOM     20  C   LIG    1       25.876 -14.056   2.138  0.00  0.00    +0.019 C 
ATOM     21  C   LIG    1       26.239 -13.558   5.013  0.00  0.00    +0.092 C 
BRANCH  14  23
ATOM     22  C   LIG    1       23.906 -11.482   2.966  0.00  0.00    +0.004 C 
ATOM     23  C   LIG    1       24.626 -11.899   4.010  0.00  0.00    -0.029 C 
ENDBRANCH  14  23
ENDBRANCH   1  17
BRANCH   1  24
ATOM     24  O   LIG    1       26.417 -17.710   2.751  0.00  0.00    -0.386 OA
ATOM     25  H   LIG    1       26.924 -18.472   2.423  0.00  0.00    +0.210 HD
ENDBRANCH   1  24
TORSDOF 5
ENDMDL
MODEL 2
REMARK VINA RESULT:      -2.9      2.054      3.469
REMARK  Name = *****
REMARK                            x       y       z     vdW  Elec       q    Type
REMARK                         _______ _______ _______ _____ _____    ______ ____
ROOT
ATOM      1  C   LIG    1       25.530 -17.393   3.616  0.00  0.00    +0.162 C 
ENDROOT
BRANCH   1   2
ATOM      2  C   LIG    1       24.530 -18.422   4.153  0.00  0.00    -0.007 A 
ATOM      3  C   LIG    1       24.935 -19.461   5.045  0.00  0.00    +0.009 A 
ATOM      4  C   LIG    1       23.927 -20.310   5.569  0.00  0.00    +0.071 A 
ATOM      5  C   LIG    1       24.277 -21.339   6.428  0.00  0.00    +0.032 A 
ATOM      6  C   LIG    1       25.602 -21.571   6.792  0.00  0.00    +0.048 A 
ATOM      7  C   LIG    1       26.607 -20.742   6.311  0.00  0.00    +0.121 A 
ATOM      8  N   LIG    1       22.627 -20.181   5.278  0.00  0.00    -0.255 NA
ATOM      9  C   LIG    1       22.272 -19.211   4.421  0.00  0.00    +0.112 A 
ATOM     10  C   LIG    1       26.277 -19.704   5.438  0.00  0.00    +0.056 A 
ATOM     11  C   LIG    1       23.169 -18.347   3.827  0.00  0.00    +0.026 A 
BRANCH   7  12
ATOM     12  O   LIG    1       27.872 -21.060   6.720  0.00  0.00    -0.495 OA
ATOM     13  C   LIG    1       28.806 -19.986   6.691  0.00  0.00    +0.277 C 
ENDBRANCH   7  12
ENDBRANCH   1   2
BRANCH   1  17
ATOM     14  C   LIG    1       24.568 -13.122   2.819  0.00  0.00    +0.028 C 
ATOM     15  C   LIG    1       25.965 -13.691   3.197  0.00  0.00    -0.000 C 
ATOM     16  C   LIG    1       26.100 -15.089   2.549  0.00  0.00    +0.026 C 
ATOM     17  C   LIG    1       24.970 -16.025   3.074  0.00  0.00    +0.090 C 
ATOM     18  N   LIG    1       24.091 -15.274   4.017  0.00  0.00    -0.296 NA
ATOM     19  C   LIG    1       24.858 -14.764   5.169  0.00  0.00    +0.085 C 
ATOM     20  C   LIG    1       26.058 -13.925   4.716  0.00  0.00    +0.019 C 
ATOM     21  C   LIG    1       23.493 -14.130   3.294  0.00  0.00    +0.092 C 
BRANCH  14  23
ATOM     22  C   LIG    1       23.646 -11.505   4.514  0.00  0.00    +0.004 C 
ATOM     23  C   LIG    1       24.290 -11.738   3.369  0.00  0.00    -0.029 C 
ENDBRANCH  14  23
ENDBRANCH   1  17
BRANCH   1  24
ATOM     24  O   LIG    1       26.283 -17.991   2.550  0.00  0.00    -0.386 OA
ATOM     25  H   LIG    1       25.861 -17.718   1.717  0.00  0.00    +0.210 HD
ENDBRANCH   1  24
TORSDOF 5
ENDMDL
MODEL 3
REMARK VINA RESULT:      -1.5      2.141      3.908
REMARK  Name = *****
REMARK                            x       y       z     vdW  Elec       q    Type
REMARK                         _______ _______ _______ _____ _____    ______ ____
ROOT
ATOM      1  C   LIG    1       23.798 -16.480   3.509  0.00  0.00    +0.162 C 
ENDROOT
BRANCH   1   2
ATOM      2  C   LIG    1       23.382 -17.883   3.963  0.00  0.00    -0.007 A 
ATOM      3  C   LIG    1       24.345 -18.839   4.409  0.00  0.00    +0.009 A 
ATOM      4  C   LIG    1       23.864 -20.078   4.904  0.00  0.00    +0.071 A 
ATOM      5  C   LIG    1       24.764 -21.038   5.335  0.00  0.00    +0.032 A 
ATOM      6  C   LIG    1       26.140 -20.824   5.294  0.00  0.00    +0.048 A 
ATOM      7  C   LIG    1       26.639 -19.613   4.836  0.00  0.00    +0.121 A 
ATOM      8  N   LIG    1       22.564 -20.389   4.979  0.00  0.00    -0.255 NA
ATOM      9  C   LIG    1       21.679 -19.485   4.533  0.00  0.00    +0.112 A 
ATOM     10  C   LIG    1       25.750 -18.633   4.388  0.00  0.00    +0.056 A 
ATOM     11  C   LIG    1       22.033 -18.261   4.005  0.00  0.00    +0.026 A 
BRANCH   7  12
ATOM     12  O   LIG    1       28.002 -19.507   4.826  0.00  0.00    -0.495 OA
ATOM     13  C   LIG    1       28.640 -19.774   6.070  0.00  0.00    +0.277 C 
ENDBRANCH   7  12
ENDBRANCH   1   2
BRANCH   1  17
ATOM     14  C   LIG    1       27.129 -13.828   4.799  0.00  0.00    +0.028 C 
ATOM     15  C   LIG    1       25.646 -13.405   4.603  0.00  0.00    -0.000 C 
ATOM     16  C   LIG    1       24.752 -14.595   5.027  0.00  0.00    +0.026 C 
ATOM     17  C   LIG    1       25.084 -15.841   4.153  0.00  0.00    +0.090 C 
ATOM     18  N   LIG    1       26.181 -15.509   3.198  0.00  0.00    -0.296 NA
ATOM     19  C   LIG    1       25.795 -14.396   2.309  0.00  0.00    +0.085 C 
ATOM     20  C   LIG    1       25.346 -13.170   3.111  0.00  0.00    +0.019 C 
ATOM     21  C   LIG    1       27.377 -15.112   3.972  0.00  0.00    +0.092 C 
BRANCH  14  23
ATOM     22  C   LIG    1       29.161 -12.938   3.608  0.00  0.00    +0.004 C 
ATOM     23  C   LIG    1       28.135 -12.753   4.442  0.00  0.00    -0.029 C 
ENDBRANCH  14  23
ENDBRANCH   1  17
BRANCH   1  24
ATOM     24  O   LIG    1       22.711 -15.574   3.752  0.00  0.00    -0.386 OA
ATOM     25  H   LIG    1       22.214 -15.925   4.512  0.00  0.00    +0.210 HD
ENDBRANCH   1  24
TORSDOF 5
ENDMDL
