MODEL 1
REMARK VINA RESULT:      -6.0      0.000      0.000
REMARK  Name = *****
REMARK                            x       y       z     vdW  Elec       q    Type
REMARK                         _______ _______ _______ _____ _____    ______ ____
ROOT
ATOM      1  C   LIG    1       28.244 -20.695   6.049  0.00  0.00    +0.020 C 
ATOM      2  C   LIG    1       27.674 -21.072   7.206  0.00  0.00    +0.036 C 
ATOM      3  C   LIG    1       26.850 -22.261   7.579  0.00  0.00    +0.069 C 
ATOM      4  C   LIG    1       25.601 -21.491   8.043  0.00  0.00    +0.216 C 
ATOM      5  C   LIG    1       24.690 -20.844   7.016  0.00  0.00    +0.192 C 
ATOM      6  C   LIG    1       23.197 -21.165   6.708  0.00  0.00    +0.097 C 
ATOM      7  C   LIG    1       22.358 -22.226   7.393  0.00  0.00    +0.041 C 
ATOM      8  C   LIG    1       22.333 -23.551   6.620  0.00  0.00    +0.030 C 
ATOM      9  C   LIG    1       23.636 -24.229   6.876  0.00  0.00    -0.028 C 
ATOM     10  C   LIG    1       24.722 -24.180   6.089  0.00  0.00    -0.076 C 
ATOM     11  C   LIG    1       26.035 -24.596   6.688  0.00  0.00    +0.031 C 
ATOM     12  C   LIG    1       24.768 -23.648   4.678  0.00  0.00    +0.038 C 
ATOM     13  C   LIG    1       22.628 -20.622   5.422  0.00  0.00    +0.044 C 
ATOM     14  O   LIG    1       23.590 -20.132   7.618  0.00  0.00    -0.361 OA
ATOM     15  O   LIG    1       26.242 -20.404   8.821  0.00  0.00    -0.455 OA
ATOM     16  C   LIG    1       27.033 -23.451   6.633  0.00  0.00    +0.016 C 
ATOM     17  C   LIG    1       27.521 -20.181   8.371  0.00  0.00    +0.335 C 
ATOM     18  O   LIG    1       28.376 -19.500   8.875  0.00  0.00    -0.245 OA
ENDROOT
TORSDOF 0
ENDMDL
MODEL 2
REMARK VINA RESULT:      -6.0      2.568      4.165
REMARK  Name = *****
REMARK                            x       y       z     vdW  Elec       q    Type
REMARK                         _______ _______ _______ _____ _____    ______ ____
ROOT
ATOM      1  C   LIG    1       23.318 -18.618   4.216  0.00  0.00    +0.020 C 
ATOM      2  C   LIG    1       24.489 -19.201   3.910  0.00  0.00    +0.036 C 
ATOM      3  C   LIG    1       24.952 -20.620   3.982  0.00  0.00    +0.069 C 
ATOM      4  C   LIG    1       26.137 -20.387   4.936  0.00  0.00    +0.216 C 
ATOM      5  C   LIG    1       25.879 -20.113   6.405  0.00  0.00    +0.192 C 
ATOM      6  C   LIG    1       26.301 -20.968   7.638  0.00  0.00    +0.097 C 
ATOM      7  C   LIG    1       27.062 -22.279   7.589  0.00  0.00    +0.041 C 
ATOM      8  C   LIG    1       26.136 -23.502   7.626  0.00  0.00    +0.030 C 
ATOM      9  C   LIG    1       25.546 -23.643   6.264  0.00  0.00    -0.028 C 
ATOM     10  C   LIG    1       24.353 -23.174   5.866  0.00  0.00    -0.076 C 
ATOM     11  C   LIG    1       24.103 -23.074   4.389  0.00  0.00    +0.031 C 
ATOM     12  C   LIG    1       23.268 -22.639   6.768  0.00  0.00    +0.038 C 
ATOM     13  C   LIG    1       25.632 -20.657   8.952  0.00  0.00    +0.044 C 
ATOM     14  O   LIG    1       27.092 -19.879   7.149  0.00  0.00    -0.361 OA
ATOM     15  O   LIG    1       26.706 -19.152   4.343  0.00  0.00    -0.455 OA
ATOM     16  C   LIG    1       23.807 -21.637   3.994  0.00  0.00    +0.016 C 
ATOM     17  C   LIG    1       25.735 -18.454   3.663  0.00  0.00    +0.335 C 
ATOM     18  O   LIG    1       25.877 -17.510   2.931  0.00  0.00    -0.245 OA
ENDROOT
TORSDOF 0
ENDMDL
MODEL 3
REMARK VINA RESULT:      -6.0      2.218      3.699
REMARK  Name = *****
REMARK                            x       y       z     vdW  Elec       q    Type
REMARK                         _______ _______ _______ _____ _____    ______ ____
ROOT
ATOM      1  C   LIG    1       26.468 -23.462   6.960  0.00  0.00    +0.020 C 
ATOM      2  C   LIG    1       26.543 -22.149   7.233  0.00  0.00    +0.036 C 
ATOM      3  C   LIG    1       25.498 -21.089   7.364  0.00  0.00    +0.069 C 
ATOM      4  C   LIG    1       26.026 -20.160   6.257  0.00  0.00    +0.216 C 
ATOM      5  C   LIG    1       25.840 -20.542   4.800  0.00  0.00    +0.192 C 
ATOM      6  C   LIG    1       25.022 -19.798   3.702  0.00  0.00    +0.097 C 
ATOM      7  C   LIG    1       24.228 -18.522   3.899  0.00  0.00    +0.041 C 
ATOM      8  C   LIG    1       22.744 -18.787   4.185  0.00  0.00    +0.030 C 
ATOM      9  C   LIG    1       22.647 -19.222   5.608  0.00  0.00    -0.028 C 
ATOM     10  C   LIG    1       22.610 -20.490   6.048  0.00  0.00    -0.076 C 
ATOM     11  C   LIG    1       22.898 -20.730   7.502  0.00  0.00    +0.031 C 
ATOM     12  C   LIG    1       22.405 -21.716   5.192  0.00  0.00    +0.038 C 
ATOM     13  C   LIG    1       24.720 -20.560   2.437  0.00  0.00    +0.044 C 
ATOM     14  O   LIG    1       26.425 -19.584   3.895  0.00  0.00    -0.361 OA
ATOM     15  O   LIG    1       27.478 -20.208   6.551  0.00  0.00    -0.455 OA
ATOM     16  C   LIG    1       24.102 -21.643   7.664  0.00  0.00    +0.016 C 
ATOM     17  C   LIG    1       27.798 -21.377   7.200  0.00  0.00    +0.335 C 
ATOM     18  O   LIG    1       28.839 -21.669   7.730  0.00  0.00    -0.245 OA
ENDROOT
TORSDOF 0
ENDMDL
MODEL 4
REMARK VINA RESULT:      -5.8      2.149      3.124
REMARK  Name = *****
REMARK                            x       y       z     vdW  Elec       q    Type
REMARK                         _______ _______ _______ _____ _____    ______ ____
ROOT
ATOM      1  C   LIG    1       28.904 -22.100   6.868  0.00  0.00    +0.020 C 
ATOM      2  C   LIG    1       28.398 -20.855   6.887  0.00  0.00    +0.036 C 
ATOM      3  C   LIG    1       27.098 -20.307   7.378  0.00  0.00    +0.069 C 
ATOM      4  C   LIG    1       26.624 -19.709   6.042  0.00  0.00    +0.216 C 
ATOM      5  C   LIG    1       26.129 -20.626   4.939  0.00  0.00    +0.192 C 
ATOM      6  C   LIG    1       24.707 -20.699   4.306  0.00  0.00    +0.097 C 
ATOM      7  C   LIG    1       23.516 -19.847   4.700  0.00  0.00    +0.041 C 
ATOM      8  C   LIG    1       22.605 -20.541   5.721  0.00  0.00    +0.030 C 
ATOM      9  C   LIG    1       23.280 -20.440   7.046  0.00  0.00    -0.028 C 
ATOM     10  C   LIG    1       24.059 -21.377   7.611  0.00  0.00    -0.076 C 
ATOM     11  C   LIG    1       24.947 -20.951   8.745  0.00  0.00    +0.031 C 
ATOM     12  C   LIG    1       24.202 -22.805   7.146  0.00  0.00    +0.038 C 
ATOM     13  C   LIG    1       24.386 -21.916   3.477  0.00  0.00    +0.044 C 
ATOM     14  O   LIG    1       25.761 -19.909   3.743  0.00  0.00    -0.361 OA
ATOM     15  O   LIG    1       27.886 -19.087   5.576  0.00  0.00    -0.455 OA
ATOM     16  C   LIG    1       26.405 -21.208   8.406  0.00  0.00    +0.016 C 
ATOM     17  C   LIG    1       28.970 -19.728   6.129  0.00  0.00    +0.335 C 
ATOM     18  O   LIG    1       30.124 -19.387   6.104  0.00  0.00    -0.245 OA
ENDROOT
TORSDOF 0
ENDMDL
MODEL 5
REMARK VINA RESULT:      -5.6      2.431      4.568
REMARK  Name = *****
REMARK                            x       y       z     vdW  Elec       q    Type
REMARK                         _______ _______ _______ _____ _____    ______ ____
ROOT
ATOM      1  C   LIG    1       25.049 -25.453   4.211  0.00  0.00    +0.020 C 
ATOM      2  C   LIG    1       25.063 -25.466   5.555  0.00  0.00    +0.036 C 
ATOM      3  C   LIG    1       24.297 -24.688   6.574  0.00  0.00    +0.069 C 
ATOM      4  C   LIG    1       25.508 -24.054   7.282  0.00  0.00    +0.216 C 
ATOM      5  C   LIG    1       26.273 -22.932   6.606  0.00  0.00    +0.192 C 
ATOM      6  C   LIG    1       26.444 -21.456   7.077  0.00  0.00    +0.097 C 
ATOM      7  C   LIG    1       25.847 -20.851   8.332  0.00  0.00    +0.041 C 
ATOM      8  C   LIG    1       24.515 -20.137   8.069  0.00  0.00    +0.030 C 
ATOM      9  C   LIG    1       23.475 -21.195   7.926  0.00  0.00    -0.028 C 
ATOM     10  C   LIG    1       23.033 -21.722   6.773  0.00  0.00    -0.076 C 
ATOM     11  C   LIG    1       22.282 -23.020   6.844  0.00  0.00    +0.031 C 
ATOM     12  C   LIG    1       23.308 -21.180   5.392  0.00  0.00    +0.038 C 
ATOM     13  C   LIG    1       26.959 -20.467   6.063  0.00  0.00    +0.044 C 
ATOM     14  O   LIG    1       27.399 -22.478   7.384  0.00  0.00    -0.361 OA
ATOM     15  O   LIG    1       26.408 -25.230   7.355  0.00  0.00    -0.455 OA
ATOM     16  C   LIG    1       22.993 -24.092   6.034  0.00  0.00    +0.016 C 
ATOM     17  C   LIG    1       26.110 -26.126   6.355  0.00  0.00    +0.335 C 
ATOM     18  O   LIG    1       26.521 -27.249   6.221  0.00  0.00    -0.245 OA
ENDROOT
TORSDOF 0
ENDMDL
MODEL 6
REMARK VINA RESULT:      -5.4      8.244      9.492
REMARK  Name = *****
REMARK                            x       y       z     vdW  Elec       q    Type
REMARK                         _______ _______ _______ _____ _____    ______ ____
ROOT
ATOM      1  C   LIG    1       27.990 -28.808  14.141  0.00  0.00    +0.020 C 
ATOM      2  C   LIG    1       27.406 -28.478  12.977  0.00  0.00    +0.036 C 
ATOM      3  C   LIG    1       26.345 -27.485  12.632  0.00  0.00    +0.069 C 
ATOM      4  C   LIG    1       25.337 -28.480  12.032  0.00  0.00    +0.216 C 
ATOM      5  C   LIG    1       24.554 -29.403  12.946  0.00  0.00    +0.192 C 
ATOM      6  C   LIG    1       23.013 -29.462  13.173  0.00  0.00    +0.097 C 
ATOM      7  C   LIG    1       21.984 -28.569  12.508  0.00  0.00    +0.041 C 
ATOM      8  C   LIG    1       21.609 -27.356  13.368  0.00  0.00    +0.030 C 
ATOM      9  C   LIG    1       22.727 -26.376  13.250  0.00  0.00    -0.028 C 
ATOM     10  C   LIG    1       23.753 -26.239  14.104  0.00  0.00    -0.076 C 
ATOM     11  C   LIG    1       24.960 -25.483  13.625  0.00  0.00    +0.031 C 
ATOM     12  C   LIG    1       23.852 -26.863  15.474  0.00  0.00    +0.038 C 
ATOM     13  C   LIG    1       22.525 -30.228  14.376  0.00  0.00    +0.044 C 
ATOM     14  O   LIG    1       23.684 -30.297  12.223  0.00  0.00    -0.361 OA
ATOM     15  O   LIG    1       26.254 -29.321  11.225  0.00  0.00    -0.455 OA
ATOM     16  C   LIG    1       26.195 -26.367  13.670  0.00  0.00    +0.016 C 
ATOM     17  C   LIG    1       27.526 -29.279  11.746  0.00  0.00    +0.335 C 
ATOM     18  O   LIG    1       28.541 -29.701  11.254  0.00  0.00    -0.245 OA
ENDROOT
TORSDOF 0
ENDMDL
MODEL 7
REMARK VINA RESULT:      -5.3      7.307      9.373
REMARK  Name = *****
REMARK                            x       y       z     vdW  Elec       q    Type
REMARK                         _______ _______ _______ _____ _____    ______ ____
ROOT
ATOM      1  C   LIG    1       26.267 -27.457   7.485  0.00  0.00    +0.020 C 
ATOM      2  C   LIG    1       25.157 -27.942   6.904  0.00  0.00    +0.036 C 
ATOM      3  C   LIG    1       24.224 -29.045   7.287  0.00  0.00    +0.069 C 
ATOM      4  C   LIG    1       24.397 -29.893   6.014  0.00  0.00    +0.216 C 
ATOM      5  C   LIG    1       25.674 -30.683   5.802  0.00  0.00    +0.192 C 
ATOM      6  C   LIG    1       25.852 -32.227   5.695  0.00  0.00    +0.097 C 
ATOM      7  C   LIG    1       24.743 -33.256   5.799  0.00  0.00    +0.041 C 
ATOM      8  C   LIG    1       24.595 -33.825   7.216  0.00  0.00    +0.030 C 
ATOM      9  C   LIG    1       23.891 -32.792   8.029  0.00  0.00    -0.028 C 
ATOM     10  C   LIG    1       24.471 -31.877   8.821  0.00  0.00    -0.076 C 
ATOM     11  C   LIG    1       23.642 -30.699   9.246  0.00  0.00    +0.031 C 
ATOM     12  C   LIG    1       25.919 -31.868   9.247  0.00  0.00    +0.038 C 
ATOM     13  C   LIG    1       27.252 -32.769   5.827  0.00  0.00    +0.044 C 
ATOM     14  O   LIG    1       25.690 -31.389   4.545  0.00  0.00    -0.361 OA
ATOM     15  O   LIG    1       24.353 -28.826   4.986  0.00  0.00    -0.455 OA
ATOM     16  C   LIG    1       24.279 -29.402   8.776  0.00  0.00    +0.016 C 
ATOM     17  C   LIG    1       24.749 -27.624   5.524  0.00  0.00    +0.335 C 
ATOM     18  O   LIG    1       24.673 -26.530   5.028  0.00  0.00    -0.245 OA
ENDROOT
TORSDOF 0
ENDMDL
MODEL 8
REMARK VINA RESULT:      -5.2      8.388      9.741
REMARK  Name = *****
REMARK                            x       y       z     vdW  Elec       q    Type
REMARK                         _______ _______ _______ _____ _____    ______ ____
ROOT
ATOM      1  C   LIG    1       26.588 -31.945   7.894  0.00  0.00    +0.020 C 
ATOM      2  C   LIG    1       25.827 -30.843   7.794  0.00  0.00    +0.036 C 
ATOM      3  C   LIG    1       25.596 -29.695   8.722  0.00  0.00    +0.069 C 
ATOM      4  C   LIG    1       24.073 -29.865   8.863  0.00  0.00    +0.216 C 
ATOM      5  C   LIG    1       23.515 -31.002   9.698  0.00  0.00    +0.192 C 
ATOM      6  C   LIG    1       22.656 -30.919  10.996  0.00  0.00    +0.097 C 
ATOM      7  C   LIG    1       22.218 -29.644  11.689  0.00  0.00    +0.041 C 
ATOM      8  C   LIG    1       23.162 -29.236  12.828  0.00  0.00    +0.030 C 
ATOM      9  C   LIG    1       24.370 -28.632  12.196  0.00  0.00    -0.028 C 
ATOM     10  C   LIG    1       25.521 -29.266  11.923  0.00  0.00    -0.076 C 
ATOM     11  C   LIG    1       26.463 -28.610  10.955  0.00  0.00    +0.031 C 
ATOM     12  C   LIG    1       25.917 -30.633  12.423  0.00  0.00    +0.038 C 
ATOM     13  C   LIG    1       22.522 -32.179  11.812  0.00  0.00    +0.044 C 
ATOM     14  O   LIG    1       22.073 -31.041   9.693  0.00  0.00    -0.361 OA
ATOM     15  O   LIG    1       23.711 -30.127   7.449  0.00  0.00    -0.455 OA
ATOM     16  C   LIG    1       26.710 -29.513   9.757  0.00  0.00    +0.016 C 
ATOM     17  C   LIG    1       24.782 -30.660   6.771  0.00  0.00    +0.335 C 
ATOM     18  O   LIG    1       24.895 -30.834   5.585  0.00  0.00    -0.245 OA
ENDROOT
TORSDOF 0
ENDMDL
MODEL 9
REMARK VINA RESULT:      -4.7      8.107     10.237
REMARK  Name = *****
REMARK                            x       y       z     vdW  Elec       q    Type
REMARK                         _______ _______ _______ _____ _____    ______ ____
ROOT
ATOM      1  C   LIG    1       23.124 -32.716   9.339  0.00  0.00    +0.020 C 
ATOM      2  C   LIG    1       22.778 -31.440   9.581  0.00  0.00    +0.036 C 
ATOM      3  C   LIG    1       23.523 -30.153   9.431  0.00  0.00    +0.069 C 
ATOM      4  C   LIG    1       23.429 -29.705  10.900  0.00  0.00    +0.216 C 
ATOM      5  C   LIG    1       24.282 -30.388  11.952  0.00  0.00    +0.192 C 
ATOM      6  C   LIG    1       25.404 -29.770  12.840  0.00  0.00    +0.097 C 
ATOM      7  C   LIG    1       25.871 -28.328  12.802  0.00  0.00    +0.041 C 
ATOM      8  C   LIG    1       27.096 -28.125  11.902  0.00  0.00    +0.030 C 
ATOM      9  C   LIG    1       26.609 -28.141  10.493  0.00  0.00    -0.028 C 
ATOM     10  C   LIG    1       26.600 -29.201   9.670  0.00  0.00    -0.076 C 
ATOM     11  C   LIG    1       25.732 -29.124   8.447  0.00  0.00    +0.031 C 
ATOM     12  C   LIG    1       27.307 -30.512   9.910  0.00  0.00    +0.038 C 
ATOM     13  C   LIG    1       26.322 -30.729  13.554  0.00  0.00    +0.044 C 
ATOM     14  O   LIG    1       24.046 -29.876  13.279  0.00  0.00    -0.361 OA
ATOM     15  O   LIG    1       22.013 -30.042  11.183  0.00  0.00    -0.455 OA
ATOM     16  C   LIG    1       24.700 -30.239   8.454  0.00  0.00    +0.016 C 
ATOM     17  C   LIG    1       21.583 -31.047  10.348  0.00  0.00    +0.335 C 
ATOM     18  O   LIG    1       20.459 -31.446  10.188  0.00  0.00    -0.245 OA
ENDROOT
TORSDOF 0
ENDMDL
