MODEL 1
REMARK VINA RESULT:      -4.7      0.000      0.000
REMARK  Name = *****
REMARK                            x       y       z     vdW  Elec       q    Type
REMARK                         _______ _______ _______ _____ _____    ______ ____
ROOT
ATOM      1  C   LIG    1       25.139 -17.192   3.437  0.00  0.00    +0.341 C 
ATOM      2  O   LIG    1       26.091 -17.803   2.954  0.00  0.00    -0.247 OA
ENDROOT
BRANCH   1   3
ATOM      3  O   LIG    1       25.160 -15.896   3.855  0.00  0.00    -0.459 OA
BRANCH   3  11
ATOM      4  C   LIG    1       23.774 -11.896   4.742  0.00  0.00    +0.007 C 
ATOM      5  C   LIG    1       24.754 -13.030   4.451  0.00  0.00    -0.010 C 
ATOM      6  C   LIG    1       26.199 -12.510   4.423  0.00  0.00    +0.010 C 
ATOM      7  C   LIG    1       27.249 -13.599   4.091  0.00  0.00    -0.031 C 
ATOM      8  C   LIG    1       28.590 -12.902   3.773  0.00  0.00    +0.011 C 
ATOM      9  C   LIG    1       27.486 -14.508   5.311  0.00  0.00    +0.011 C 
ATOM     10  C   LIG    1       26.815 -14.428   2.851  0.00  0.00    +0.051 C 
ATOM     11  C   LIG    1       25.348 -14.888   2.844  0.00  0.00    +0.177 C 
ATOM     12  C   LIG    1       24.414 -13.707   3.118  0.00  0.00    +0.048 C 
ENDBRANCH   3  11
ENDBRANCH   1   3
BRANCH   1  13
ATOM     13  C   LIG    1       23.747 -17.808   3.635  0.00  0.00    +0.253 C 
BRANCH  13  14
ATOM     14  C   LIG    1       23.801 -19.127   4.382  0.00  0.00    -0.008 A 
ATOM     15  C   LIG    1       24.938 -19.953   4.337  0.00  0.00    +0.007 A 
ATOM     16  C   LIG    1       24.971 -21.161   5.038  0.00  0.00    +0.000 A 
ATOM     17  C   LIG    1       23.870 -21.562   5.791  0.00  0.00    +0.000 A 
ATOM     18  C   LIG    1       22.735 -20.757   5.844  0.00  0.00    +0.000 A 
ATOM     19  C   LIG    1       22.700 -19.547   5.145  0.00  0.00    +0.007 A 
ENDBRANCH  13  14
BRANCH  13  20
ATOM     20  O   LIG    1       22.871 -16.924   4.338  0.00  0.00    -0.376 OA
ATOM     21  H   LIG    1       22.562 -16.271   3.683  0.00  0.00    +0.211 HD
ENDBRANCH  13  20
ENDBRANCH   1  13
TORSDOF 5
ENDMDL
MODEL 2
REMARK VINA RESULT:      -4.7      1.522      6.835
REMARK  Name = *****
REMARK                            x       y       z     vdW  Elec       q    Type
REMARK                         _______ _______ _______ _____ _____    ______ ____
ROOT
ATOM      1  C   LIG    1       25.564 -16.717   3.503  0.00  0.00    +0.341 C 
ATOM      2  O   LIG    1       26.590 -16.939   2.861  0.00  0.00    -0.247 OA
ENDROOT
BRANCH   1   3
ATOM      3  O   LIG    1       24.623 -17.642   3.838  0.00  0.00    -0.459 OA
BRANCH   3  11
ATOM      4  C   LIG    1       26.511 -20.588   6.380  0.00  0.00    +0.007 C 
ATOM      5  C   LIG    1       25.414 -19.902   5.569  0.00  0.00    -0.010 C 
ATOM      6  C   LIG    1       24.110 -20.711   5.621  0.00  0.00    +0.010 C 
ATOM      7  C   LIG    1       22.960 -20.098   4.784  0.00  0.00    -0.031 C 
ATOM      8  C   LIG    1       21.838 -21.151   4.651  0.00  0.00    +0.011 C 
ATOM      9  C   LIG    1       22.358 -18.879   5.509  0.00  0.00    +0.011 C 
ATOM     10  C   LIG    1       23.452 -19.716   3.361  0.00  0.00    +0.051 C 
ATOM     11  C   LIG    1       24.794 -18.968   3.304  0.00  0.00    +0.177 C 
ATOM     12  C   LIG    1       25.858 -19.713   4.114  0.00  0.00    +0.048 C 
ENDBRANCH   3  11
ENDBRANCH   1   3
BRANCH   1  13
ATOM     13  C   LIG    1       25.188 -15.331   4.046  0.00  0.00    +0.253 C 
BRANCH  13  14
ATOM     14  C   LIG    1       26.377 -14.392   4.109  0.00  0.00    -0.008 A 
ATOM     15  C   LIG    1       27.119 -14.067   2.960  0.00  0.00    +0.007 A 
ATOM     16  C   LIG    1       28.208 -13.194   3.037  0.00  0.00    +0.000 A 
ATOM     17  C   LIG    1       28.570 -12.636   4.260  0.00  0.00    +0.000 A 
ATOM     18  C   LIG    1       27.847 -12.950   5.408  0.00  0.00    +0.000 A 
ATOM     19  C   LIG    1       26.758 -13.822   5.334  0.00  0.00    +0.007 A 
ENDBRANCH  13  14
BRANCH  13  20
ATOM     20  O   LIG    1       24.163 -14.714   3.263  0.00  0.00    -0.376 OA
ATOM     21  H   LIG    1       24.568 -13.923   2.861  0.00  0.00    +0.211 HD
ENDBRANCH  13  20
ENDBRANCH   1  13
TORSDOF 5
ENDMDL
MODEL 3
REMARK VINA RESULT:      -4.4      0.804      2.372
REMARK  Name = *****
REMARK                            x       y       z     vdW  Elec       q    Type
REMARK                         _______ _______ _______ _____ _____    ______ ____
ROOT
ATOM      1  C   LIG    1       25.386 -17.185   3.485  0.00  0.00    +0.341 C 
ATOM      2  O   LIG    1       26.396 -17.864   3.666  0.00  0.00    -0.247 OA
ENDROOT
BRANCH   1   3
ATOM      3  O   LIG    1       25.364 -15.841   3.263  0.00  0.00    -0.459 OA
BRANCH   3  11
ATOM      4  C   LIG    1       28.642 -13.022   3.373  0.00  0.00    +0.007 C 
ATOM      5  C   LIG    1       27.204 -13.530   3.301  0.00  0.00    -0.010 C 
ATOM      6  C   LIG    1       26.214 -12.357   3.239  0.00  0.00    +0.010 C 
ATOM      7  C   LIG    1       24.729 -12.794   3.208  0.00  0.00    -0.031 C 
ATOM      8  C   LIG    1       23.850 -11.552   3.476  0.00  0.00    +0.011 C 
ATOM      9  C   LIG    1       24.353 -13.326   1.812  0.00  0.00    +0.011 C 
ATOM     10  C   LIG    1       24.439 -13.853   4.307  0.00  0.00    +0.051 C 
ATOM     11  C   LIG    1       25.469 -14.989   4.419  0.00  0.00    +0.177 C 
ATOM     12  C   LIG    1       26.887 -14.420   4.509  0.00  0.00    +0.048 C 
ENDBRANCH   3  11
ENDBRANCH   1   3
BRANCH   1  13
ATOM     13  C   LIG    1       23.965 -17.766   3.467  0.00  0.00    +0.253 C 
BRANCH  13  14
ATOM     14  C   LIG    1       23.879 -19.104   4.176  0.00  0.00    -0.008 A 
ATOM     15  C   LIG    1       24.848 -20.104   3.979  0.00  0.00    +0.007 A 
ATOM     16  C   LIG    1       24.755 -21.328   4.646  0.00  0.00    +0.000 A 
ATOM     17  C   LIG    1       23.695 -21.571   5.517  0.00  0.00    +0.000 A 
ATOM     18  C   LIG    1       22.726 -20.592   5.720  0.00  0.00    +0.000 A 
ATOM     19  C   LIG    1       22.817 -19.366   5.055  0.00  0.00    +0.007 A 
ENDBRANCH  13  14
BRANCH  13  20
ATOM     20  O   LIG    1       23.020 -16.874   4.066  0.00  0.00    -0.376 OA
ATOM     21  H   LIG    1       22.703 -16.294   3.349  0.00  0.00    +0.211 HD
ENDBRANCH  13  20
ENDBRANCH   1  13
TORSDOF 5
ENDMDL
MODEL 4
REMARK VINA RESULT:      -4.2      1.417      6.574
REMARK  Name = *****
REMARK                            x       y       z     vdW  Elec       q    Type
REMARK                         _______ _______ _______ _____ _____    ______ ____
ROOT
ATOM      1  C   LIG    1       26.165 -16.658   3.484  0.00  0.00    +0.341 C 
ATOM      2  O   LIG    1       27.326 -16.907   3.806  0.00  0.00    -0.247 OA
ENDROOT
BRANCH   1   3
ATOM      3  O   LIG    1       25.086 -17.451   3.732  0.00  0.00    -0.459 OA
BRANCH   3  11
ATOM      4  C   LIG    1       26.349 -20.573   6.445  0.00  0.00    +0.007 C 
ATOM      5  C   LIG    1       25.425 -19.766   5.536  0.00  0.00    -0.010 C 
ATOM      6  C   LIG    1       24.030 -20.404   5.471  0.00  0.00    +0.010 C 
ATOM      7  C   LIG    1       23.047 -19.663   4.531  0.00  0.00    -0.031 C 
ATOM      8  C   LIG    1       21.817 -20.569   4.301  0.00  0.00    +0.011 C 
ATOM      9  C   LIG    1       22.542 -18.368   5.194  0.00  0.00    +0.011 C 
ATOM     10  C   LIG    1       23.709 -19.367   3.158  0.00  0.00    +0.051 C 
ATOM     11  C   LIG    1       25.135 -18.796   3.220  0.00  0.00    +0.177 C 
ATOM     12  C   LIG    1       26.019 -19.657   4.126  0.00  0.00    +0.048 C 
ENDBRANCH   3  11
ENDBRANCH   1   3
BRANCH   1  13
ATOM     13  C   LIG    1       25.746 -15.378   2.746  0.00  0.00    +0.253 C 
BRANCH  13  14
ATOM     14  C   LIG    1       25.342 -14.269   3.698  0.00  0.00    -0.008 A 
ATOM     15  C   LIG    1       26.142 -13.917   4.800  0.00  0.00    +0.007 A 
ATOM     16  C   LIG    1       25.756 -12.887   5.662  0.00  0.00    +0.000 A 
ATOM     17  C   LIG    1       24.568 -12.196   5.437  0.00  0.00    +0.000 A 
ATOM     18  C   LIG    1       23.764 -12.534   4.352  0.00  0.00    +0.000 A 
ATOM     19  C   LIG    1       24.148 -13.563   3.488  0.00  0.00    +0.007 A 
ENDBRANCH  13  14
BRANCH  13  20
ATOM     20  O   LIG    1       26.787 -14.890   1.897  0.00  0.00    -0.376 OA
ATOM     21  H   LIG    1       26.686 -13.921   1.873  0.00  0.00    +0.211 HD
ENDBRANCH  13  20
ENDBRANCH   1  13
TORSDOF 5
ENDMDL
MODEL 5
REMARK VINA RESULT:      -4.1      0.844      2.618
REMARK  Name = *****
REMARK                            x       y       z     vdW  Elec       q    Type
REMARK                         _______ _______ _______ _____ _____    ______ ____
ROOT
ATOM      1  C   LIG    1       25.401 -17.323   3.385  0.00  0.00    +0.341 C 
ATOM      2  O   LIG    1       26.511 -17.846   3.486  0.00  0.00    -0.247 OA
ENDROOT
BRANCH   1   3
ATOM      3  O   LIG    1       25.165 -15.992   3.224  0.00  0.00    -0.459 OA
BRANCH   3  11
ATOM      4  C   LIG    1       28.567 -13.322   3.315  0.00  0.00    +0.007 C 
ATOM      5  C   LIG    1       27.106 -13.764   3.259  0.00  0.00    -0.010 C 
ATOM      6  C   LIG    1       26.169 -12.548   3.222  0.00  0.00    +0.010 C 
ATOM      7  C   LIG    1       24.666 -12.919   3.208  0.00  0.00    -0.031 C 
ATOM      8  C   LIG    1       23.847 -11.642   3.500  0.00  0.00    +0.011 C 
ATOM      9  C   LIG    1       24.248 -13.419   1.812  0.00  0.00    +0.011 C 
ATOM     10  C   LIG    1       24.344 -13.975   4.300  0.00  0.00    +0.051 C 
ATOM     11  C   LIG    1       25.324 -15.157   4.387  0.00  0.00    +0.177 C 
ATOM     12  C   LIG    1       26.767 -14.652   4.462  0.00  0.00    +0.048 C 
ENDBRANCH   3  11
ENDBRANCH   1   3
BRANCH   1  13
ATOM     13  C   LIG    1       24.085 -18.113   3.414  0.00  0.00    +0.253 C 
BRANCH  13  14
ATOM     14  C   LIG    1       24.138 -19.289   4.370  0.00  0.00    -0.008 A 
ATOM     15  C   LIG    1       23.036 -19.638   5.170  0.00  0.00    +0.007 A 
ATOM     16  C   LIG    1       23.103 -20.730   6.040  0.00  0.00    +0.000 A 
ATOM     17  C   LIG    1       24.269 -21.487   6.122  0.00  0.00    +0.000 A 
ATOM     18  C   LIG    1       25.370 -21.153   5.338  0.00  0.00    +0.000 A 
ATOM     19  C   LIG    1       25.306 -20.062   4.467  0.00  0.00    +0.007 A 
ENDBRANCH  13  14
BRANCH  13  20
ATOM     20  O   LIG    1       22.977 -17.284   3.776  0.00  0.00    -0.376 OA
ATOM     21  H   LIG    1       23.085 -16.454   3.276  0.00  0.00    +0.211 HD
ENDBRANCH  13  20
ENDBRANCH   1  13
TORSDOF 5
ENDMDL
MODEL 6
REMARK VINA RESULT:      -4.1      1.720      6.412
REMARK  Name = *****
REMARK                            x       y       z     vdW  Elec       q    Type
REMARK                         _______ _______ _______ _____ _____    ______ ____
ROOT
ATOM      1  C   LIG    1       26.543 -17.484   3.861  0.00  0.00    +0.341 C 
ATOM      2  O   LIG    1       27.289 -18.286   4.423  0.00  0.00    -0.247 OA
ENDROOT
BRANCH   1   3
ATOM      3  O   LIG    1       25.212 -17.662   3.640  0.00  0.00    -0.459 OA
BRANCH   3  11
ATOM      4  C   LIG    1       24.845 -20.826   6.567  0.00  0.00    +0.007 C 
ATOM      5  C   LIG    1       24.417 -19.796   5.523  0.00  0.00    -0.010 C 
ATOM      6  C   LIG    1       22.901 -19.859   5.284  0.00  0.00    +0.010 C 
ATOM      7  C   LIG    1       22.398 -18.871   4.204  0.00  0.00    -0.031 C 
ATOM      8  C   LIG    1       20.950 -19.255   3.828  0.00  0.00    +0.011 C 
ATOM      9  C   LIG    1       22.358 -17.436   4.764  0.00  0.00    +0.011 C 
ATOM     10  C   LIG    1       23.278 -18.948   2.926  0.00  0.00    +0.051 C 
ATOM     11  C   LIG    1       24.797 -18.959   3.169  0.00  0.00    +0.177 C 
ATOM     12  C   LIG    1       25.167 -20.023   4.205  0.00  0.00    +0.048 C 
ENDBRANCH   3  11
ENDBRANCH   1   3
BRANCH   1  13
ATOM     13  C   LIG    1       27.011 -16.125   3.322  0.00  0.00    +0.253 C 
BRANCH  13  14
ATOM     14  C   LIG    1       25.899 -15.093   3.315  0.00  0.00    -0.008 A 
ATOM     15  C   LIG    1       24.839 -15.148   4.237  0.00  0.00    +0.007 A 
ATOM     16  C   LIG    1       23.828 -14.183   4.220  0.00  0.00    +0.000 A 
ATOM     17  C   LIG    1       23.861 -13.154   3.282  0.00  0.00    +0.000 A 
ATOM     18  C   LIG    1       24.903 -13.087   2.361  0.00  0.00    +0.000 A 
ATOM     19  C   LIG    1       25.916 -14.050   2.377  0.00  0.00    +0.007 A 
ENDBRANCH  13  14
BRANCH  13  20
ATOM     20  O   LIG    1       28.109 -15.605   4.075  0.00  0.00    -0.376 OA
ATOM     21  H   LIG    1       28.230 -14.684   3.777  0.00  0.00    +0.211 HD
ENDBRANCH  13  20
ENDBRANCH   1  13
TORSDOF 5
ENDMDL
MODEL 7
REMARK VINA RESULT:      -4.0      1.435      1.819
REMARK  Name = *****
REMARK                            x       y       z     vdW  Elec       q    Type
REMARK                         _______ _______ _______ _____ _____    ______ ____
ROOT
ATOM      1  C   LIG    1       26.815 -17.110   3.784  0.00  0.00    +0.341 C 
ATOM      2  O   LIG    1       28.001 -17.207   4.100  0.00  0.00    -0.247 OA
ENDROOT
BRANCH   1   3
ATOM      3  O   LIG    1       26.123 -15.945   3.656  0.00  0.00    -0.459 OA
BRANCH   3  11
ATOM      4  C   LIG    1       23.885 -12.283   3.118  0.00  0.00    +0.007 C 
ATOM      5  C   LIG    1       25.026 -13.203   3.544  0.00  0.00    -0.010 C 
ATOM      6  C   LIG    1       26.158 -12.400   4.203  0.00  0.00    +0.010 C 
ATOM      7  C   LIG    1       27.373 -13.262   4.624  0.00  0.00    -0.031 C 
ATOM      8  C   LIG    1       28.548 -12.318   4.959  0.00  0.00    +0.011 C 
ATOM      9  C   LIG    1       27.050 -14.060   5.902  0.00  0.00    +0.011 C 
ATOM     10  C   LIG    1       27.810 -14.207   3.470  0.00  0.00    +0.051 C 
ATOM     11  C   LIG    1       26.670 -14.957   2.762  0.00  0.00    +0.177 C 
ATOM     12  C   LIG    1       25.567 -13.982   2.339  0.00  0.00    +0.048 C 
ENDBRANCH   3  11
ENDBRANCH   1   3
BRANCH   1  13
ATOM     13  C   LIG    1       25.920 -18.317   3.468  0.00  0.00    +0.253 C 
BRANCH  13  14
ATOM     14  C   LIG    1       26.019 -19.402   4.522  0.00  0.00    -0.008 A 
ATOM     15  C   LIG    1       27.167 -19.550   5.321  0.00  0.00    +0.007 A 
ATOM     16  C   LIG    1       27.236 -20.552   6.292  0.00  0.00    +0.000 A 
ATOM     17  C   LIG    1       26.163 -21.419   6.479  0.00  0.00    +0.000 A 
ATOM     18  C   LIG    1       25.020 -21.287   5.695  0.00  0.00    +0.000 A 
ATOM     19  C   LIG    1       24.947 -20.285   4.723  0.00  0.00    +0.007 A 
ENDBRANCH  13  14
BRANCH  13  20
ATOM     20  O   LIG    1       24.548 -17.938   3.333  0.00  0.00    -0.376 OA
ATOM     21  H   LIG    1       24.243 -17.702   4.229  0.00  0.00    +0.211 HD
ENDBRANCH  13  20
ENDBRANCH   1  13
TORSDOF 5
ENDMDL
MODEL 8
REMARK VINA RESULT:      -4.0      1.176      6.968
REMARK  Name = *****
REMARK                            x       y       z     vdW  Elec       q    Type
REMARK                         _______ _______ _______ _____ _____    ______ ____
ROOT
ATOM      1  C   LIG    1       24.649 -17.441   3.687  0.00  0.00    +0.341 C 
ATOM      2  O   LIG    1       23.441 -17.312   3.487  0.00  0.00    -0.247 OA
ENDROOT
BRANCH   1   3
ATOM      3  O   LIG    1       25.225 -18.402   4.460  0.00  0.00    -0.459 OA
BRANCH   3  11
ATOM      4  C   LIG    1       26.600 -21.572   7.062  0.00  0.00    +0.007 C 
ATOM      5  C   LIG    1       25.641 -20.755   6.199  0.00  0.00    -0.010 C 
ATOM      6  C   LIG    1       24.252 -21.408   6.158  0.00  0.00    +0.010 C 
ATOM      7  C   LIG    1       23.235 -20.657   5.264  0.00  0.00    -0.031 C 
ATOM      8  C   LIG    1       22.009 -21.572   5.046  0.00  0.00    +0.011 C 
ATOM      9  C   LIG    1       22.734 -19.384   5.972  0.00  0.00    +0.011 C 
ATOM     10  C   LIG    1       23.854 -20.321   3.880  0.00  0.00    +0.051 C 
ATOM     11  C   LIG    1       25.275 -19.734   3.916  0.00  0.00    +0.177 C 
ATOM     12  C   LIG    1       26.194 -20.606   4.776  0.00  0.00    +0.048 C 
ENDBRANCH   3  11
ENDBRANCH   1   3
BRANCH   1  13
ATOM     13  C   LIG    1       25.714 -16.524   3.069  0.00  0.00    +0.253 C 
BRANCH  13  14
ATOM     14  C   LIG    1       25.712 -15.139   3.687  0.00  0.00    -0.008 A 
ATOM     15  C   LIG    1       24.568 -14.321   3.658  0.00  0.00    +0.007 A 
ATOM     16  C   LIG    1       24.584 -13.051   4.240  0.00  0.00    +0.000 A 
ATOM     17  C   LIG    1       25.741 -12.580   4.856  0.00  0.00    +0.000 A 
ATOM     18  C   LIG    1       26.883 -13.376   4.890  0.00  0.00    +0.000 A 
ATOM     19  C   LIG    1       26.869 -14.647   4.310  0.00  0.00    +0.007 A 
ENDBRANCH  13  14
BRANCH  13  20
ATOM     20  O   LIG    1       27.026 -17.075   3.195  0.00  0.00    -0.376 OA
ATOM     21  H   LIG    1       26.951 -18.015   2.947  0.00  0.00    +0.211 HD
ENDBRANCH  13  20
ENDBRANCH   1  13
TORSDOF 5
ENDMDL
MODEL 9
REMARK VINA RESULT:      -3.9      1.256      1.685
REMARK  Name = *****
REMARK                            x       y       z     vdW  Elec       q    Type
REMARK                         _______ _______ _______ _____ _____    ______ ____
ROOT
ATOM      1  C   LIG    1       22.845 -16.089   4.804  0.00  0.00    +0.341 C 
ATOM      2  O   LIG    1       21.995 -15.665   5.585  0.00  0.00    -0.247 OA
ENDROOT
BRANCH   1   3
ATOM      3  O   LIG    1       24.107 -15.597   4.662  0.00  0.00    -0.459 OA
BRANCH   3  11
ATOM      4  C   LIG    1       23.557 -11.447   3.575  0.00  0.00    +0.007 C 
ATOM      5  C   LIG    1       24.288 -12.746   3.907  0.00  0.00    -0.010 C 
ATOM      6  C   LIG    1       25.809 -12.560   3.800  0.00  0.00    +0.010 C 
ATOM      7  C   LIG    1       26.618 -13.850   4.081  0.00  0.00    -0.031 C 
ATOM      8  C   LIG    1       28.076 -13.620   3.627  0.00  0.00    +0.011 C 
ATOM      9  C   LIG    1       26.652 -14.144   5.593  0.00  0.00    +0.011 C 
ATOM     10  C   LIG    1       26.036 -15.053   3.290  0.00  0.00    +0.051 C 
ATOM     11  C   LIG    1       24.506 -15.199   3.337  0.00  0.00    +0.177 C 
ATOM     12  C   LIG    1       23.830 -13.874   2.974  0.00  0.00    +0.048 C 
ENDBRANCH   3  11
ENDBRANCH   1   3
BRANCH   1  13
ATOM     13  C   LIG    1       22.611 -17.275   3.857  0.00  0.00    +0.253 C 
BRANCH  13  14
ATOM     14  C   LIG    1       23.307 -18.537   4.328  0.00  0.00    -0.008 A 
ATOM     15  C   LIG    1       24.563 -18.917   3.823  0.00  0.00    +0.007 A 
ATOM     16  C   LIG    1       25.192 -20.080   4.275  0.00  0.00    +0.000 A 
ATOM     17  C   LIG    1       24.575 -20.879   5.235  0.00  0.00    +0.000 A 
ATOM     18  C   LIG    1       23.330 -20.518   5.743  0.00  0.00    +0.000 A 
ATOM     19  C   LIG    1       22.700 -19.355   5.293  0.00  0.00    +0.007 A 
ENDBRANCH  13  14
BRANCH  13  20
ATOM     20  O   LIG    1       21.219 -17.557   3.695  0.00  0.00    -0.376 OA
ATOM     21  H   LIG    1       20.784 -16.698   3.541  0.00  0.00    +0.211 HD
ENDBRANCH  13  20
ENDBRANCH   1  13
TORSDOF 5
ENDMDL
