MODEL 1
REMARK VINA RESULT:      -4.4      0.000      0.000
REMARK  Name = *****
REMARK                            x       y       z     vdW  Elec       q    Type
REMARK                         _______ _______ _______ _____ _____    ______ ____
ROOT
ATOM      1  N   LIG    1       25.903 -18.397   4.122  0.00  0.00    -0.259 N 
ATOM      2  C   LIG    1       24.912 -19.383   3.902  0.00  0.00    +0.333 C 
ATOM      3  O   LIG    1       24.283 -19.306   2.848  0.00  0.00    -0.246 OA
ATOM      4  N   LIG    1       24.704 -20.368   4.920  0.00  0.00    -0.280 N 
ATOM      5  C   LIG    1       23.433 -21.126   5.299  0.00  0.00    +0.155 C 
ATOM      6  C   LIG    1       25.789 -20.618   5.697  0.00  0.00    +0.168 A 
ATOM      7  N   LIG    1       25.890 -21.571   6.661  0.00  0.00    -0.218 NA
ATOM      8  C   LIG    1       27.142 -21.495   7.062  0.00  0.00    +0.202 A 
ATOM      9  N   LIG    1       27.817 -20.522   6.390  0.00  0.00    -0.328 N 
ATOM     10  C   LIG    1       29.183 -20.119   6.587  0.00  0.00    +0.150 C 
ATOM     11  C   LIG    1       26.961 -19.917   5.529  0.00  0.00    +0.151 A 
ATOM     12  C   LIG    1       27.076 -18.815   4.667  0.00  0.00    +0.282 C 
ATOM     13  O   LIG    1       28.217 -18.277   4.413  0.00  0.00    -0.265 OA
ENDROOT
BRANCH   1  14
ATOM     14  C   LIG    1       25.841 -17.179   3.274  0.00  0.00    +0.130 C 
BRANCH  14  15
ATOM     15  C   LIG    1       26.762 -15.986   3.674  0.00  0.00    +0.022 C 
BRANCH  15  16
ATOM     16  C   LIG    1       26.511 -14.540   3.166  0.00  0.00    +0.009 C 
BRANCH  16  17
ATOM     17  C   LIG    1       25.585 -13.595   3.863  0.00  0.00    +0.074 C 
BRANCH  17  19
ATOM     18  C   LIG    1       23.289 -14.876   4.413  0.00  0.00    +0.086 C 
ATOM     19  C   LIG    1       24.126 -13.731   3.748  0.00  0.00    +0.130 C 
ATOM     20  O   LIG    1       23.753 -12.901   2.933  0.00  0.00    -0.298 OA
ENDBRANCH  17  19
ENDBRANCH  16  17
ENDBRANCH  15  16
ENDBRANCH  14  15
ENDBRANCH   1  14
TORSDOF 5
ENDMDL
MODEL 2
REMARK VINA RESULT:      -4.0      1.130      1.211
REMARK  Name = *****
REMARK                            x       y       z     vdW  Elec       q    Type
REMARK                         _______ _______ _______ _____ _____    ______ ____
ROOT
ATOM      1  N   LIG    1       27.127 -17.920   4.323  0.00  0.00    -0.259 N 
ATOM      2  C   LIG    1       26.035 -18.615   3.751  0.00  0.00    +0.333 C 
ATOM      3  O   LIG    1       25.690 -18.266   2.623  0.00  0.00    -0.246 OA
ATOM      4  N   LIG    1       25.407 -19.641   4.528  0.00  0.00    -0.280 N 
ATOM      5  C   LIG    1       23.958 -20.123   4.519  0.00  0.00    +0.155 C 
ATOM      6  C   LIG    1       26.214 -20.229   5.448  0.00  0.00    +0.168 A 
ATOM      7  N   LIG    1       25.899 -21.290   6.238  0.00  0.00    -0.218 NA
ATOM      8  C   LIG    1       27.017 -21.556   6.882  0.00  0.00    +0.202 A 
ATOM      9  N   LIG    1       28.008 -20.692   6.528  0.00  0.00    -0.328 N 
ATOM     10  C   LIG    1       29.346 -20.645   7.053  0.00  0.00    +0.150 C 
ATOM     11  C   LIG    1       27.509 -19.805   5.632  0.00  0.00    +0.151 A 
ATOM     12  C   LIG    1       28.037 -18.663   5.007  0.00  0.00    +0.282 C 
ATOM     13  O   LIG    1       29.290 -18.379   5.075  0.00  0.00    -0.265 OA
ENDROOT
BRANCH   1  14
ATOM     14  C   LIG    1       27.506 -16.628   3.697  0.00  0.00    +0.130 C 
BRANCH  14  15
ATOM     15  C   LIG    1       26.359 -15.608   3.420  0.00  0.00    +0.022 C 
BRANCH  15  16
ATOM     16  C   LIG    1       26.568 -14.347   2.538  0.00  0.00    +0.009 C 
BRANCH  16  17
ATOM     17  C   LIG    1       25.554 -13.251   2.453  0.00  0.00    +0.074 C 
BRANCH  17  19
ATOM     18  C   LIG    1       24.742 -12.536   4.911  0.00  0.00    +0.086 C 
ATOM     19  C   LIG    1       24.504 -13.102   3.471  0.00  0.00    +0.130 C 
ATOM     20  O   LIG    1       23.500 -13.638   3.028  0.00  0.00    -0.298 OA
ENDBRANCH  17  19
ENDBRANCH  16  17
ENDBRANCH  15  16
ENDBRANCH  14  15
ENDBRANCH   1  14
TORSDOF 5
ENDMDL
MODEL 3
REMARK VINA RESULT:      -3.2      1.673      2.446
REMARK  Name = *****
REMARK                            x       y       z     vdW  Elec       q    Type
REMARK                         _______ _______ _______ _____ _____    ______ ____
ROOT
ATOM      1  N   LIG    1       23.511 -18.641   4.618  0.00  0.00    -0.259 N 
ATOM      2  C   LIG    1       22.783 -19.788   5.013  0.00  0.00    +0.333 C 
ATOM      3  O   LIG    1       21.667 -19.930   4.517  0.00  0.00    -0.246 OA
ATOM      4  N   LIG    1       23.383 -20.671   5.967  0.00  0.00    -0.280 N 
ATOM      5  C   LIG    1       22.726 -21.570   7.013  0.00  0.00    +0.155 C 
ATOM      6  C   LIG    1       24.741 -20.659   5.975  0.00  0.00    +0.168 A 
ATOM      7  N   LIG    1       25.552 -21.469   6.706  0.00  0.00    -0.218 NA
ATOM      8  C   LIG    1       26.767 -21.152   6.309  0.00  0.00    +0.202 A 
ATOM      9  N   LIG    1       26.739 -20.169   5.368  0.00  0.00    -0.328 N 
ATOM     10  C   LIG    1       27.868 -19.538   4.739  0.00  0.00    +0.150 C 
ATOM     11  C   LIG    1       25.449 -19.807   5.159  0.00  0.00    +0.151 A 
ATOM     12  C   LIG    1       24.839 -18.805   4.385  0.00  0.00    +0.282 C 
ATOM     13  O   LIG    1       25.506 -18.129   3.517  0.00  0.00    -0.265 OA
ENDROOT
BRANCH   1  14
ATOM     14  C   LIG    1       22.746 -17.552   3.958  0.00  0.00    +0.130 C 
BRANCH  14  15
ATOM     15  C   LIG    1       22.878 -16.121   4.563  0.00  0.00    +0.022 C 
BRANCH  15  16
ATOM     16  C   LIG    1       23.235 -14.884   3.694  0.00  0.00    +0.009 C 
BRANCH  16  17
ATOM     17  C   LIG    1       24.100 -13.773   4.198  0.00  0.00    +0.074 C 
BRANCH  17  19
ATOM     18  C   LIG    1       26.423 -14.308   2.961  0.00  0.00    +0.086 C 
ATOM     19  C   LIG    1       25.565 -13.889   4.202  0.00  0.00    +0.130 C 
ATOM     20  O   LIG    1       25.930 -13.755   5.360  0.00  0.00    -0.298 OA
ENDBRANCH  17  19
ENDBRANCH  16  17
ENDBRANCH  15  16
ENDBRANCH  14  15
ENDBRANCH   1  14
TORSDOF 5
ENDMDL
MODEL 4
REMARK VINA RESULT:      -3.0      1.265      3.201
REMARK  Name = *****
REMARK                            x       y       z     vdW  Elec       q    Type
REMARK                         _______ _______ _______ _____ _____    ______ ____
ROOT
ATOM      1  N   LIG    1       25.897 -19.208   4.103  0.00  0.00    -0.259 N 
ATOM      2  C   LIG    1       26.732 -19.419   5.226  0.00  0.00    +0.333 C 
ATOM      3  O   LIG    1       27.732 -18.709   5.310  0.00  0.00    -0.246 OA
ATOM      4  N   LIG    1       26.366 -20.445   6.155  0.00  0.00    -0.280 N 
ATOM      5  C   LIG    1       27.249 -21.314   7.047  0.00  0.00    +0.155 C 
ATOM      6  C   LIG    1       25.036 -20.719   6.201  0.00  0.00    +0.168 A 
ATOM      7  N   LIG    1       24.417 -21.571   7.061  0.00  0.00    -0.218 NA
ATOM      8  C   LIG    1       23.136 -21.430   6.789  0.00  0.00    +0.202 A 
ATOM      9  N   LIG    1       22.941 -20.532   5.785  0.00  0.00    -0.328 N 
ATOM     10  C   LIG    1       21.687 -20.154   5.190  0.00  0.00    +0.150 C 
ATOM     11  C   LIG    1       24.150 -20.084   5.364  0.00  0.00    +0.151 A 
ATOM     12  C   LIG    1       24.556 -19.236   4.320  0.00  0.00    +0.282 C 
ATOM     13  O   LIG    1       23.706 -18.536   3.654  0.00  0.00    -0.265 OA
ENDROOT
BRANCH   1  14
ATOM     14  C   LIG    1       26.475 -18.443   2.969  0.00  0.00    +0.130 C 
BRANCH  14  15
ATOM     15  C   LIG    1       26.230 -16.903   2.950  0.00  0.00    +0.022 C 
BRANCH  15  16
ATOM     16  C   LIG    1       27.183 -15.905   3.664  0.00  0.00    +0.009 C 
BRANCH  16  17
ATOM     17  C   LIG    1       26.886 -14.442   3.759  0.00  0.00    +0.074 C 
BRANCH  17  19
ATOM     18  C   LIG    1       24.297 -13.735   3.649  0.00  0.00    +0.086 C 
ATOM     19  C   LIG    1       25.741 -13.848   3.054  0.00  0.00    +0.130 C 
ATOM     20  O   LIG    1       26.104 -13.625   1.909  0.00  0.00    -0.298 OA
ENDBRANCH  17  19
ENDBRANCH  16  17
ENDBRANCH  15  16
ENDBRANCH  14  15
ENDBRANCH   1  14
TORSDOF 5
ENDMDL
MODEL 5
REMARK VINA RESULT:      -2.7      1.512      3.368
REMARK  Name = *****
REMARK                            x       y       z     vdW  Elec       q    Type
REMARK                         _______ _______ _______ _____ _____    ______ ____
ROOT
ATOM      1  N   LIG    1       26.206 -18.865   4.096  0.00  0.00    -0.259 N 
ATOM      2  C   LIG    1       27.178 -19.045   5.109  0.00  0.00    +0.333 C 
ATOM      3  O   LIG    1       28.095 -18.228   5.144  0.00  0.00    -0.246 OA
ATOM      4  N   LIG    1       27.033 -20.166   5.989  0.00  0.00    -0.280 N 
ATOM      5  C   LIG    1       28.100 -20.978   6.718  0.00  0.00    +0.155 C 
ATOM      6  C   LIG    1       25.755 -20.599   6.149  0.00  0.00    +0.168 A 
ATOM      7  N   LIG    1       25.334 -21.572   6.999  0.00  0.00    -0.218 NA
ATOM      8  C   LIG    1       24.023 -21.568   6.870  0.00  0.00    +0.202 A 
ATOM      9  N   LIG    1       23.619 -20.637   5.963  0.00  0.00    -0.328 N 
ATOM     10  C   LIG    1       22.273 -20.375   5.528  0.00  0.00    +0.150 C 
ATOM     11  C   LIG    1       24.717 -20.022   5.456  0.00  0.00    +0.151 A 
ATOM     12  C   LIG    1       24.909 -19.066   4.445  0.00  0.00    +0.282 C 
ATOM     13  O   LIG    1       23.918 -18.432   3.924  0.00  0.00    -0.265 OA
ENDROOT
BRANCH   1  14
ATOM     14  C   LIG    1       26.567 -17.965   2.970  0.00  0.00    +0.130 C 
BRANCH  14  15
ATOM     15  C   LIG    1       26.857 -16.473   3.317  0.00  0.00    +0.022 C 
BRANCH  15  16
ATOM     16  C   LIG    1       25.743 -15.390   3.313  0.00  0.00    +0.009 C 
BRANCH  16  17
ATOM     17  C   LIG    1       26.034 -13.939   3.526  0.00  0.00    +0.074 C 
BRANCH  17  19
ATOM     18  C   LIG    1       28.560 -13.029   3.621  0.00  0.00    +0.086 C 
ATOM     19  C   LIG    1       27.218 -13.501   4.279  0.00  0.00    +0.130 C 
ATOM     20  O   LIG    1       26.997 -13.728   5.458  0.00  0.00    -0.298 OA
ENDBRANCH  17  19
ENDBRANCH  16  17
ENDBRANCH  15  16
ENDBRANCH  14  15
ENDBRANCH   1  14
TORSDOF 5
ENDMDL
MODEL 6
REMARK VINA RESULT:      -2.1      2.509      6.407
REMARK  Name = *****
REMARK                            x       y       z     vdW  Elec       q    Type
REMARK                         _______ _______ _______ _____ _____    ______ ____
ROOT
ATOM      1  N   LIG    1       24.095 -16.398   4.060  0.00  0.00    -0.259 N 
ATOM      2  C   LIG    1       25.198 -17.182   3.647  0.00  0.00    +0.333 C 
ATOM      3  O   LIG    1       24.950 -18.329   3.278  0.00  0.00    -0.246 OA
ATOM      4  N   LIG    1       26.503 -16.598   3.712  0.00  0.00    -0.280 N 
ATOM      5  C   LIG    1       27.859 -17.262   3.939  0.00  0.00    +0.155 C 
ATOM      6  C   LIG    1       26.523 -15.243   3.612  0.00  0.00    +0.168 A 
ATOM      7  N   LIG    1       27.628 -14.455   3.544  0.00  0.00    -0.218 NA
ATOM      8  C   LIG    1       27.149 -13.242   3.360  0.00  0.00    +0.202 A 
ATOM      9  N   LIG    1       25.788 -13.249   3.324  0.00  0.00    -0.328 N 
ATOM     10  C   LIG    1       24.918 -12.112   3.186  0.00  0.00    +0.150 C 
ATOM     11  C   LIG    1       25.357 -14.520   3.519  0.00  0.00    +0.151 A 
ATOM     12  C   LIG    1       24.084 -15.097   3.667  0.00  0.00    +0.282 C 
ATOM     13  O   LIG    1       23.012 -14.429   3.421  0.00  0.00    -0.265 OA
ENDROOT
BRANCH   1  14
ATOM     14  C   LIG    1       22.832 -17.118   4.363  0.00  0.00    +0.130 C 
BRANCH  14  15
ATOM     15  C   LIG    1       22.812 -18.656   4.111  0.00  0.00    +0.022 C 
BRANCH  15  16
ATOM     16  C   LIG    1       22.393 -19.670   5.211  0.00  0.00    +0.009 C 
BRANCH  16  17
ATOM     17  C   LIG    1       23.392 -20.441   6.014  0.00  0.00    +0.074 C 
BRANCH  17  19
ATOM     18  C   LIG    1       26.075 -20.444   5.882  0.00  0.00    +0.086 C 
ATOM     19  C   LIG    1       24.652 -20.909   5.419  0.00  0.00    +0.130 C 
ATOM     20  O   LIG    1       24.358 -21.571   4.437  0.00  0.00    -0.298 OA
ENDBRANCH  17  19
ENDBRANCH  16  17
ENDBRANCH  15  16
ENDBRANCH  14  15
ENDBRANCH   1  14
TORSDOF 5
ENDMDL
MODEL 7
REMARK VINA RESULT:      -2.0      1.334      3.206
REMARK  Name = *****
REMARK                            x       y       z     vdW  Elec       q    Type
REMARK                         _______ _______ _______ _____ _____    ______ ____
ROOT
ATOM      1  N   LIG    1       25.831 -18.619   3.885  0.00  0.00    -0.259 N 
ATOM      2  C   LIG    1       26.648 -19.113   4.930  0.00  0.00    +0.333 C 
ATOM      3  O   LIG    1       27.668 -18.474   5.180  0.00  0.00    -0.246 OA
ATOM      4  N   LIG    1       26.241 -20.315   5.593  0.00  0.00    -0.280 N 
ATOM      5  C   LIG    1       27.089 -21.396   6.260  0.00  0.00    +0.155 C 
ATOM      6  C   LIG    1       24.903 -20.550   5.570  0.00  0.00    +0.168 A 
ATOM      7  N   LIG    1       24.250 -21.558   6.205  0.00  0.00    -0.218 NA
ATOM      8  C   LIG    1       22.976 -21.317   5.970  0.00  0.00    +0.202 A 
ATOM      9  N   LIG    1       22.819 -20.204   5.203  0.00  0.00    -0.328 N 
ATOM     10  C   LIG    1       21.583 -19.658   4.708  0.00  0.00    +0.150 C 
ATOM     11  C   LIG    1       24.045 -19.709   4.901  0.00  0.00    +0.151 A 
ATOM     12  C   LIG    1       24.488 -18.654   4.085  0.00  0.00    +0.282 C 
ATOM     13  O   LIG    1       23.666 -17.792   3.599  0.00  0.00    -0.265 OA
ENDROOT
BRANCH   1  14
ATOM     14  C   LIG    1       26.444 -17.630   2.962  0.00  0.00    +0.130 C 
BRANCH  14  15
ATOM     15  C   LIG    1       25.944 -16.157   3.065  0.00  0.00    +0.022 C 
BRANCH  15  16
ATOM     16  C   LIG    1       26.768 -15.050   3.779  0.00  0.00    +0.009 C 
BRANCH  16  17
ATOM     17  C   LIG    1       26.201 -13.702   4.089  0.00  0.00    +0.074 C 
BRANCH  17  19
ATOM     18  C   LIG    1       24.513 -12.173   2.664  0.00  0.00    +0.086 C 
ATOM     19  C   LIG    1       24.842 -13.330   3.667  0.00  0.00    +0.130 C 
ATOM     20  O   LIG    1       24.066 -13.973   4.356  0.00  0.00    -0.298 OA
ENDBRANCH  17  19
ENDBRANCH  16  17
ENDBRANCH  15  16
ENDBRANCH  14  15
ENDBRANCH   1  14
TORSDOF 5
ENDMDL
MODEL 8
REMARK VINA RESULT:      -1.7      2.375      5.955
REMARK  Name = *****
REMARK                            x       y       z     vdW  Elec       q    Type
REMARK                         _______ _______ _______ _____ _____    ______ ____
ROOT
ATOM      1  N   LIG    1       24.555 -18.453   3.500  0.00  0.00    -0.259 N 
ATOM      2  C   LIG    1       23.446 -18.201   4.342  0.00  0.00    +0.333 C 
ATOM      3  O   LIG    1       23.005 -19.160   4.974  0.00  0.00    -0.246 OA
ATOM      4  N   LIG    1       22.913 -16.872   4.376  0.00  0.00    -0.280 N 
ATOM      5  C   LIG    1       21.484 -16.400   4.636  0.00  0.00    +0.155 C 
ATOM      6  C   LIG    1       23.807 -15.896   4.074  0.00  0.00    +0.168 A 
ATOM      7  N   LIG    1       23.589 -14.556   4.130  0.00  0.00    -0.218 NA
ATOM      8  C   LIG    1       24.760 -14.025   3.846  0.00  0.00    +0.202 A 
ATOM      9  N   LIG    1       25.692 -14.987   3.605  0.00  0.00    -0.328 N 
ATOM     10  C   LIG    1       27.064 -14.789   3.221  0.00  0.00    +0.150 C 
ATOM     11  C   LIG    1       25.098 -16.201   3.710  0.00  0.00    +0.151 A 
ATOM     12  C   LIG    1       25.538 -17.516   3.482  0.00  0.00    +0.282 C 
ATOM     13  O   LIG    1       26.783 -17.783   3.296  0.00  0.00    -0.265 OA
ENDROOT
BRANCH   1  14
ATOM     14  C   LIG    1       24.842 -19.873   3.172  0.00  0.00    +0.130 C 
BRANCH  14  15
ATOM     15  C   LIG    1       25.287 -20.799   4.346  0.00  0.00    +0.022 C 
BRANCH  15  16
ATOM     16  C   LIG    1       25.978 -20.244   5.622  0.00  0.00    +0.009 C 
BRANCH  16  17
ATOM     17  C   LIG    1       27.023 -21.011   6.366  0.00  0.00    +0.074 C 
BRANCH  17  19
ATOM     18  C   LIG    1       28.902 -19.154   5.882  0.00  0.00    +0.086 C 
ATOM     19  C   LIG    1       28.391 -20.494   6.512  0.00  0.00    +0.130 C 
ATOM     20  O   LIG    1       29.046 -21.366   7.061  0.00  0.00    -0.298 OA
ENDBRANCH  17  19
ENDBRANCH  16  17
ENDBRANCH  15  16
ENDBRANCH  14  15
ENDBRANCH   1  14
TORSDOF 5
ENDMDL
MODEL 9
REMARK VINA RESULT:      -1.5      2.879      6.458
REMARK  Name = *****
REMARK                            x       y       z     vdW  Elec       q    Type
REMARK                         _______ _______ _______ _____ _____    ______ ____
ROOT
ATOM      1  N   LIG    1       25.941 -16.300   3.498  0.00  0.00    -0.259 N 
ATOM      2  C   LIG    1       24.711 -15.625   3.683  0.00  0.00    +0.333 C 
ATOM      3  O   LIG    1       23.809 -16.262   4.224  0.00  0.00    -0.246 OA
ATOM      4  N   LIG    1       24.605 -14.277   3.211  0.00  0.00    -0.280 N 
ATOM      5  C   LIG    1       23.383 -13.515   2.703  0.00  0.00    +0.155 C 
ATOM      6  C   LIG    1       25.782 -13.601   3.158  0.00  0.00    +0.168 A 
ATOM      7  N   LIG    1       25.945 -12.288   2.846  0.00  0.00    -0.218 NA
ATOM      8  C   LIG    1       27.232 -12.072   3.021  0.00  0.00    +0.202 A 
ATOM      9  N   LIG    1       27.873 -13.205   3.419  0.00  0.00    -0.328 N 
ATOM     10  C   LIG    1       29.282 -13.365   3.663  0.00  0.00    +0.150 C 
ATOM     11  C   LIG    1       26.969 -14.214   3.482  0.00  0.00    +0.151 A 
ATOM     12  C   LIG    1       27.075 -15.591   3.739  0.00  0.00    +0.282 C 
ATOM     13  O   LIG    1       28.164 -16.108   4.190  0.00  0.00    -0.265 OA
ENDROOT
BRANCH   1  14
ATOM     14  C   LIG    1       25.922 -17.780   3.620  0.00  0.00    +0.130 C 
BRANCH  14  15
ATOM     15  C   LIG    1       24.584 -18.505   3.275  0.00  0.00    +0.022 C 
BRANCH  15  16
ATOM     16  C   LIG    1       24.228 -19.903   3.852  0.00  0.00    +0.009 C 
BRANCH  16  17
ATOM     17  C   LIG    1       25.133 -20.639   4.788  0.00  0.00    +0.074 C 
BRANCH  17  19
ATOM     18  C   LIG    1       23.467 -20.771   6.891  0.00  0.00    +0.086 C 
ATOM     19  C   LIG    1       24.885 -20.651   6.237  0.00  0.00    +0.130 C 
ATOM     20  O   LIG    1       25.947 -20.396   6.783  0.00  0.00    -0.298 OA
ENDBRANCH  17  19
ENDBRANCH  16  17
ENDBRANCH  15  16
ENDBRANCH  14  15
ENDBRANCH   1  14
TORSDOF 5
ENDMDL
