MODEL 1
REMARK VINA RESULT:      -8.8      0.000      0.000
REMARK  Name = *****
REMARK                            x       y       z     vdW  Elec       q    Type
REMARK                         _______ _______ _______ _____ _____    ______ ____
ROOT
ATOM      1  N   LIG    1       26.405 -21.124   8.409  0.00  0.00    -0.302 NA
ATOM      2  H   LIG    1       25.922 -20.776   9.241  0.00  0.00    +0.123 HD
ENDROOT
BRANCH   1   3
ATOM      3  C   LIG    1       25.420 -21.676   7.457  0.00  0.00    +0.023 C 
ATOM      4  C   LIG    1       25.728 -23.186   7.211  0.00  0.00    +0.026 C 
ATOM      5  C   LIG    1       24.695 -23.805   6.241  0.00  0.00    -0.006 C 
ATOM      6  C   LIG    1       24.757 -23.066   4.897  0.00  0.00    +0.038 C 
ATOM      7  C   LIG    1       24.458 -21.574   5.110  0.00  0.00    +0.068 C 
ATOM      8  C   LIG    1       23.053 -21.412   5.713  0.00  0.00    +0.038 C 
ATOM      9  C   LIG    1       22.960 -22.171   7.046  0.00  0.00    -0.006 C 
ATOM     10  C   LIG    1       23.281 -23.655   6.826  0.00  0.00    +0.007 C 
ATOM     11  C   LIG    1       25.490 -20.971   6.079  0.00  0.00    +0.057 C 
ATOM     12  C   LIG    1       23.983 -21.588   8.028  0.00  0.00    +0.026 C 
BRANCH   7  13
ATOM     13  O   LIG    1       24.533 -20.886   3.869  0.00  0.00    -0.389 OA
ATOM     14  H   LIG    1       23.626 -20.698   3.573  0.00  0.00    +0.210 HD
ENDBRANCH   7  13
ENDBRANCH   1   3
BRANCH   1  15
ATOM     15  C   LIG    1       27.240 -20.022   7.868  0.00  0.00    +0.178 C 
BRANCH  15  18
ATOM     16  C   LIG    1       31.113 -19.967   7.887  0.00  0.00    +0.179 C 
ATOM     17  N   LIG    1       29.692 -19.662   8.078  0.00  0.00    -0.285 N 
ATOM     18  C   LIG    1       28.688 -20.475   7.610  0.00  0.00    +0.230 C 
ATOM     19  O   LIG    1       28.932 -21.545   7.049  0.00  0.00    -0.274 OA
ATOM     20  C   LIG    1       29.496 -18.362   8.693  0.00  0.00    +0.109 C 
ATOM     21  C   LIG    1       30.861 -18.003   9.242  0.00  0.00    +0.022 C 
ATOM     22  C   LIG    1       31.799 -18.632   8.214  0.00  0.00    +0.039 C 
BRANCH  16  24
ATOM     23  N   LIG    1       31.928 -21.848   9.550  0.00  0.00    -0.195 NA
ATOM     24  C   LIG    1       31.610 -21.026   8.801  0.00  0.00    +0.085 C 
ENDBRANCH  16  24
ENDBRANCH  15  18
ENDBRANCH   1  15
TORSDOF 5
ENDMDL
MODEL 2
REMARK VINA RESULT:      -8.7      1.102      2.018
REMARK  Name = *****
REMARK                            x       y       z     vdW  Elec       q    Type
REMARK                         _______ _______ _______ _____ _____    ______ ____
ROOT
ATOM      1  N   LIG    1       26.421 -21.088   8.283  0.00  0.00    -0.302 NA
ATOM      2  H   LIG    1       25.950 -20.699   9.103  0.00  0.00    +0.123 HD
ENDROOT
BRANCH   1   3
ATOM      3  C   LIG    1       25.422 -21.671   7.365  0.00  0.00    +0.023 C 
ATOM      4  C   LIG    1       23.992 -21.229   7.808  0.00  0.00    +0.026 C 
ATOM      5  C   LIG    1       22.921 -21.797   6.847  0.00  0.00    -0.006 C 
ATOM      6  C   LIG    1       22.988 -23.330   6.866  0.00  0.00    +0.038 C 
ATOM      7  C   LIG    1       24.388 -23.794   6.434  0.00  0.00    +0.068 C 
ATOM      8  C   LIG    1       24.681 -23.291   5.011  0.00  0.00    +0.038 C 
ATOM      9  C   LIG    1       24.589 -21.757   4.965  0.00  0.00    -0.006 C 
ATOM     10  C   LIG    1       23.195 -21.304   5.417  0.00  0.00    +0.007 C 
ATOM     11  C   LIG    1       25.444 -23.220   7.394  0.00  0.00    +0.057 C 
ATOM     12  C   LIG    1       25.632 -21.162   5.917  0.00  0.00    +0.026 C 
BRANCH   7  13
ATOM     13  O   LIG    1       24.456 -25.213   6.467  0.00  0.00    -0.389 OA
ATOM     14  H   LIG    1       24.948 -25.510   5.683  0.00  0.00    +0.210 HD
ENDBRANCH   7  13
ENDBRANCH   1   3
BRANCH   1  15
ATOM     15  C   LIG    1       27.262 -20.019   7.686  0.00  0.00    +0.178 C 
BRANCH  15  18
ATOM     16  C   LIG    1       31.129 -19.972   7.897  0.00  0.00    +0.179 C 
ATOM     17  N   LIG    1       29.701 -19.664   8.019  0.00  0.00    -0.285 N 
ATOM     18  C   LIG    1       28.719 -20.475   7.500  0.00  0.00    +0.230 C 
ATOM     19  O   LIG    1       28.989 -21.543   6.948  0.00  0.00    -0.274 OA
ATOM     20  C   LIG    1       29.477 -18.365   8.626  0.00  0.00    +0.109 C 
ATOM     21  C   LIG    1       30.813 -18.011   9.243  0.00  0.00    +0.022 C 
ATOM     22  C   LIG    1       31.801 -18.639   8.261  0.00  0.00    +0.039 C 
BRANCH  16  24
ATOM     23  N   LIG    1       31.859 -21.853   9.599  0.00  0.00    -0.195 NA
ATOM     24  C   LIG    1       31.578 -21.034   8.833  0.00  0.00    +0.085 C 
ENDBRANCH  16  24
ENDBRANCH  15  18
ENDBRANCH   1  15
TORSDOF 5
ENDMDL
MODEL 3
REMARK VINA RESULT:      -7.9      1.170      1.582
REMARK  Name = *****
REMARK                            x       y       z     vdW  Elec       q    Type
REMARK                         _______ _______ _______ _____ _____    ______ ____
ROOT
ATOM      1  N   LIG    1       26.030 -21.330   7.513  0.00  0.00    -0.302 NA
ATOM      2  H   LIG    1       25.490 -21.507   8.363  0.00  0.00    +0.123 HD
ENDROOT
BRANCH   1   3
ATOM      3  C   LIG    1       25.113 -21.026   6.396  0.00  0.00    +0.023 C 
ATOM      4  C   LIG    1       24.702 -22.355   5.687  0.00  0.00    +0.026 C 
ATOM      5  C   LIG    1       23.716 -22.075   4.529  0.00  0.00    -0.006 C 
ATOM      6  C   LIG    1       24.391 -21.158   3.499  0.00  0.00    +0.038 C 
ATOM      7  C   LIG    1       24.807 -19.841   4.172  0.00  0.00    +0.068 C 
ATOM      8  C   LIG    1       23.564 -19.137   4.739  0.00  0.00    +0.038 C 
ATOM      9  C   LIG    1       22.855 -20.052   5.751  0.00  0.00    -0.006 C 
ATOM     10  C   LIG    1       22.462 -21.372   5.075  0.00  0.00    +0.007 C 
ATOM     11  C   LIG    1       25.785 -20.132   5.323  0.00  0.00    +0.057 C 
ATOM     12  C   LIG    1       23.813 -20.358   6.908  0.00  0.00    +0.026 C 
BRANCH   7  13
ATOM     13  O   LIG    1       25.449 -18.998   3.224  0.00  0.00    -0.389 OA
ATOM     14  H   LIG    1       24.798 -18.348   2.909  0.00  0.00    +0.210 HD
ENDBRANCH   7  13
ENDBRANCH   1   3
BRANCH   1  15
ATOM     15  C   LIG    1       27.020 -20.264   7.811  0.00  0.00    +0.178 C 
BRANCH  15  18
ATOM     16  C   LIG    1       30.892 -20.230   7.830  0.00  0.00    +0.179 C 
ATOM     17  N   LIG    1       29.473 -19.897   7.983  0.00  0.00    -0.285 N 
ATOM     18  C   LIG    1       28.465 -20.752   7.608  0.00  0.00    +0.230 C 
ATOM     19  O   LIG    1       28.703 -21.880   7.172  0.00  0.00    -0.274 OA
ATOM     20  C   LIG    1       29.285 -18.534   8.446  0.00  0.00    +0.109 C 
ATOM     21  C   LIG    1       30.651 -18.124   8.954  0.00  0.00    +0.022 C 
ATOM     22  C   LIG    1       31.587 -18.871   8.005  0.00  0.00    +0.039 C 
BRANCH  16  24
ATOM     23  N   LIG    1       31.696 -21.912   9.699  0.00  0.00    -0.195 NA
ATOM     24  C   LIG    1       31.383 -21.182   8.859  0.00  0.00    +0.085 C 
ENDBRANCH  16  24
ENDBRANCH  15  18
ENDBRANCH   1  15
TORSDOF 5
ENDMDL
MODEL 4
REMARK VINA RESULT:      -7.6      4.681      7.434
REMARK  Name = *****
REMARK                            x       y       z     vdW  Elec       q    Type
REMARK                         _______ _______ _______ _____ _____    ______ ____
ROOT
ATOM      1  N   LIG    1       24.445 -25.540   5.950  0.00  0.00    -0.302 NA
ATOM      2  H   LIG    1       23.523 -25.891   6.215  0.00  0.00    +0.123 HD
ENDROOT
BRANCH   1   3
ATOM      3  C   LIG    1       24.518 -24.088   6.213  0.00  0.00    +0.023 C 
ATOM      4  C   LIG    1       23.172 -23.608   6.841  0.00  0.00    +0.026 C 
ATOM      5  C   LIG    1       23.225 -22.095   7.159  0.00  0.00    -0.006 C 
ATOM      6  C   LIG    1       23.468 -21.313   5.860  0.00  0.00    +0.038 C 
ATOM      7  C   LIG    1       24.789 -21.768   5.220  0.00  0.00    +0.068 C 
ATOM      8  C   LIG    1       25.950 -21.506   6.193  0.00  0.00    +0.038 C 
ATOM      9  C   LIG    1       25.711 -22.257   7.513  0.00  0.00    -0.006 C 
ATOM     10  C   LIG    1       24.380 -21.811   8.133  0.00  0.00    +0.007 C 
ATOM     11  C   LIG    1       24.724 -23.274   4.911  0.00  0.00    +0.057 C 
ATOM     12  C   LIG    1       25.641 -23.762   7.229  0.00  0.00    +0.026 C 
BRANCH   7  13
ATOM     13  O   LIG    1       25.005 -21.058   4.008  0.00  0.00    -0.389 OA
ATOM     14  H   LIG    1       24.255 -20.454   3.874  0.00  0.00    +0.210 HD
ENDBRANCH   7  13
ENDBRANCH   1   3
BRANCH   1  15
ATOM     15  C   LIG    1       25.467 -26.350   6.660  0.00  0.00    +0.178 C 
BRANCH  15  18
ATOM     16  C   LIG    1       25.273 -29.959   8.051  0.00  0.00    +0.179 C 
ATOM     17  N   LIG    1       25.580 -28.544   7.826  0.00  0.00    -0.285 N 
ATOM     18  C   LIG    1       25.043 -27.823   6.786  0.00  0.00    +0.230 C 
ATOM     19  O   LIG    1       24.223 -28.320   6.012  0.00  0.00    -0.274 OA
ATOM     20  C   LIG    1       26.595 -28.058   8.743  0.00  0.00    +0.109 C 
ATOM     21  C   LIG    1       26.655 -29.118   9.822  0.00  0.00    +0.022 C 
ATOM     22  C   LIG    1       26.366 -30.396   9.038  0.00  0.00    +0.039 C 
BRANCH  16  24
ATOM     23  N   LIG    1       22.922 -30.409   9.163  0.00  0.00    -0.195 NA
ATOM     24  C   LIG    1       23.934 -30.177   8.654  0.00  0.00    +0.085 C 
ENDBRANCH  16  24
ENDBRANCH  15  18
ENDBRANCH   1  15
TORSDOF 5
ENDMDL
MODEL 5
REMARK VINA RESULT:      -7.4      4.715      7.498
REMARK  Name = *****
REMARK                            x       y       z     vdW  Elec       q    Type
REMARK                         _______ _______ _______ _____ _____    ______ ____
ROOT
ATOM      1  N   LIG    1       24.439 -25.559   5.929  0.00  0.00    -0.302 NA
ATOM      2  H   LIG    1       23.514 -25.933   6.151  0.00  0.00    +0.123 HD
ENDROOT
BRANCH   1   3
ATOM      3  C   LIG    1       24.467 -24.108   6.203  0.00  0.00    +0.023 C 
ATOM      4  C   LIG    1       24.662 -23.332   4.862  0.00  0.00    +0.026 C 
ATOM      5  C   LIG    1       24.665 -21.805   5.108  0.00  0.00    -0.006 C 
ATOM      6  C   LIG    1       25.820 -21.447   6.054  0.00  0.00    +0.038 C 
ATOM      7  C   LIG    1       25.653 -22.199   7.384  0.00  0.00    +0.068 C 
ATOM      8  C   LIG    1       24.321 -21.800   8.038  0.00  0.00    +0.038 C 
ATOM      9  C   LIG    1       23.152 -22.122   7.093  0.00  0.00    -0.006 C 
ATOM     10  C   LIG    1       23.338 -21.383   5.761  0.00  0.00    +0.007 C 
ATOM     11  C   LIG    1       25.649 -23.716   7.125  0.00  0.00    +0.057 C 
ATOM     12  C   LIG    1       23.129 -23.631   6.819  0.00  0.00    +0.026 C 
BRANCH   7  13
ATOM     13  O   LIG    1       26.732 -21.883   8.253  0.00  0.00    -0.389 OA
ATOM     14  H   LIG    1       27.561 -22.130   7.808  0.00  0.00    +0.210 HD
ENDBRANCH   7  13
ENDBRANCH   1   3
BRANCH   1  15
ATOM     15  C   LIG    1       25.447 -26.351   6.679  0.00  0.00    +0.178 C 
BRANCH  15  18
ATOM     16  C   LIG    1       25.283 -29.959   8.075  0.00  0.00    +0.179 C 
ATOM     17  N   LIG    1       25.579 -28.542   7.847  0.00  0.00    -0.285 N 
ATOM     18  C   LIG    1       25.034 -27.827   6.807  0.00  0.00    +0.230 C 
ATOM     19  O   LIG    1       24.215 -28.331   6.036  0.00  0.00    -0.274 OA
ATOM     20  C   LIG    1       26.594 -28.047   8.760  0.00  0.00    +0.109 C 
ATOM     21  C   LIG    1       26.665 -29.105   9.841  0.00  0.00    +0.022 C 
ATOM     22  C   LIG    1       26.383 -30.387   9.060  0.00  0.00    +0.039 C 
BRANCH  16  24
ATOM     23  N   LIG    1       22.926 -30.440   9.161  0.00  0.00    -0.195 NA
ATOM     24  C   LIG    1       23.948 -30.187   8.683  0.00  0.00    +0.085 C 
ENDBRANCH  16  24
ENDBRANCH  15  18
ENDBRANCH   1  15
TORSDOF 5
ENDMDL
MODEL 6
REMARK VINA RESULT:      -7.1      4.489      5.947
REMARK  Name = *****
REMARK                            x       y       z     vdW  Elec       q    Type
REMARK                         _______ _______ _______ _____ _____    ______ ____
ROOT
ATOM      1  N   LIG    1       24.421 -19.605   3.753  0.00  0.00    -0.302 NA
ATOM      2  H   LIG    1       25.320 -19.627   3.268  0.00  0.00    +0.123 HD
ENDROOT
BRANCH   1   3
ATOM      3  C   LIG    1       24.468 -20.492   4.933  0.00  0.00    +0.023 C 
ATOM      4  C   LIG    1       25.804 -20.254   5.705  0.00  0.00    +0.026 C 
ATOM      5  C   LIG    1       25.874 -21.146   6.967  0.00  0.00    -0.006 C 
ATOM      6  C   LIG    1       25.805 -22.621   6.548  0.00  0.00    +0.038 C 
ATOM      7  C   LIG    1       24.497 -22.883   5.784  0.00  0.00    +0.068 C 
ATOM      8  C   LIG    1       23.298 -22.556   6.688  0.00  0.00    +0.038 C 
ATOM      9  C   LIG    1       23.365 -21.090   7.144  0.00  0.00    -0.006 C 
ATOM     10  C   LIG    1       24.682 -20.833   7.887  0.00  0.00    +0.007 C 
ATOM     11  C   LIG    1       24.439 -21.988   4.534  0.00  0.00    +0.057 C 
ATOM     12  C   LIG    1       23.310 -20.178   5.912  0.00  0.00    +0.026 C 
BRANCH   7  13
ATOM     13  O   LIG    1       24.440 -24.244   5.380  0.00  0.00    -0.389 OA
ATOM     14  H   LIG    1       23.505 -24.508   5.341  0.00  0.00    +0.210 HD
ENDBRANCH   7  13
ENDBRANCH   1   3
BRANCH   1  15
ATOM     15  C   LIG    1       24.097 -18.187   4.056  0.00  0.00    +0.178 C 
BRANCH  15  18
ATOM     16  C   LIG    1       25.790 -14.850   3.055  0.00  0.00    +0.179 C 
ATOM     17  N   LIG    1       24.895 -15.877   3.598  0.00  0.00    -0.285 N 
ATOM     18  C   LIG    1       25.131 -17.222   3.449  0.00  0.00    +0.230 C 
ATOM     19  O   LIG    1       26.148 -17.642   2.894  0.00  0.00    -0.274 OA
ATOM     20  C   LIG    1       23.698 -15.297   4.180  0.00  0.00    +0.109 C 
ATOM     21  C   LIG    1       24.035 -13.830   4.335  0.00  0.00    +0.022 C 
ATOM     22  C   LIG    1       24.936 -13.575   3.127  0.00  0.00    +0.039 C 
BRANCH  16  24
ATOM     23  N   LIG    1       28.013 -14.477   4.429  0.00  0.00    -0.195 NA
ATOM     24  C   LIG    1       27.028 -14.673   3.856  0.00  0.00    +0.085 C 
ENDBRANCH  16  24
ENDBRANCH  15  18
ENDBRANCH   1  15
TORSDOF 5
ENDMDL
MODEL 7
REMARK VINA RESULT:      -7.1      2.119      7.301
REMARK  Name = *****
REMARK                            x       y       z     vdW  Elec       q    Type
REMARK                         _______ _______ _______ _____ _____    ______ ____
ROOT
ATOM      1  N   LIG    1       27.826 -21.196   7.281  0.00  0.00    -0.302 NA
ATOM      2  H   LIG    1       28.122 -21.914   6.617  0.00  0.00    +0.123 HD
ENDROOT
BRANCH   1   3
ATOM      3  C   LIG    1       28.994 -20.391   7.695  0.00  0.00    +0.023 C 
ATOM      4  C   LIG    1       29.617 -19.701   6.441  0.00  0.00    +0.026 C 
ATOM      5  C   LIG    1       30.825 -18.823   6.843  0.00  0.00    -0.006 C 
ATOM      6  C   LIG    1       31.896 -19.706   7.500  0.00  0.00    +0.038 C 
ATOM      7  C   LIG    1       31.308 -20.399   8.739  0.00  0.00    +0.068 C 
ATOM      8  C   LIG    1       30.836 -19.339   9.747  0.00  0.00    +0.038 C 
ATOM      9  C   LIG    1       29.785 -18.425   9.099  0.00  0.00    -0.006 C 
ATOM     10  C   LIG    1       30.375 -17.753   7.851  0.00  0.00    +0.007 C 
ATOM     11  C   LIG    1       30.106 -21.266   8.326  0.00  0.00    +0.057 C 
ATOM     12  C   LIG    1       28.577 -19.269   8.677  0.00  0.00    +0.026 C 
BRANCH   7  13
ATOM     13  O   LIG    1       32.293 -21.231   9.337  0.00  0.00    -0.389 OA
ATOM     14  H   LIG    1       32.640 -21.827   8.652  0.00  0.00    +0.210 HD
ENDBRANCH   7  13
ENDBRANCH   1   3
BRANCH   1  15
ATOM     15  C   LIG    1       26.727 -20.417   6.658  0.00  0.00    +0.178 C 
BRANCH  15  18
ATOM     16  C   LIG    1       22.995 -21.434   6.455  0.00  0.00    +0.179 C 
ATOM     17  N   LIG    1       24.360 -20.991   6.155  0.00  0.00    -0.285 N 
ATOM     18  C   LIG    1       25.344 -20.915   7.111  0.00  0.00    +0.230 C 
ATOM     19  O   LIG    1       25.144 -21.273   8.274  0.00  0.00    -0.274 OA
ATOM     20  C   LIG    1       24.491 -20.534   4.783  0.00  0.00    +0.109 C 
ATOM     21  C   LIG    1       23.247 -21.060   4.098  0.00  0.00    +0.022 C 
ATOM     22  C   LIG    1       22.207 -20.987   5.214  0.00  0.00    +0.039 C 
BRANCH  16  24
ATOM     23  N   LIG    1       22.873 -24.055   6.744  0.00  0.00    -0.195 NA
ATOM     24  C   LIG    1       22.882 -22.905   6.620  0.00  0.00    +0.085 C 
ENDBRANCH  16  24
ENDBRANCH  15  18
ENDBRANCH   1  15
TORSDOF 5
ENDMDL
MODEL 8
REMARK VINA RESULT:      -7.0      2.048      6.989
REMARK  Name = *****
REMARK                            x       y       z     vdW  Elec       q    Type
REMARK                         _______ _______ _______ _____ _____    ______ ____
ROOT
ATOM      1  N   LIG    1       28.250 -21.513   8.385  0.00  0.00    -0.302 NA
ATOM      2  H   LIG    1       28.741 -22.378   8.621  0.00  0.00    +0.123 HD
ENDROOT
BRANCH   1   3
ATOM      3  C   LIG    1       29.229 -20.429   8.166  0.00  0.00    +0.023 C 
ATOM      4  C   LIG    1       28.992 -19.298   9.216  0.00  0.00    +0.026 C 
ATOM      5  C   LIG    1       30.022 -18.159   9.036  0.00  0.00    -0.006 C 
ATOM      6  C   LIG    1       29.874 -17.561   7.630  0.00  0.00    +0.038 C 
ATOM      7  C   LIG    1       30.102 -18.655   6.575  0.00  0.00    +0.068 C 
ATOM      8  C   LIG    1       31.517 -19.236   6.732  0.00  0.00    +0.038 C 
ATOM      9  C   LIG    1       31.695 -19.812   8.146  0.00  0.00    -0.006 C 
ATOM     10  C   LIG    1       31.445 -18.718   9.192  0.00  0.00    +0.007 C 
ATOM     11  C   LIG    1       29.075 -19.783   6.766  0.00  0.00    +0.057 C 
ATOM     12  C   LIG    1       30.678 -20.939   8.361  0.00  0.00    +0.026 C 
BRANCH   7  13
ATOM     13  O   LIG    1       29.948 -18.107   5.272  0.00  0.00    -0.389 OA
ATOM     14  H   LIG    1       29.368 -18.698   4.763  0.00  0.00    +0.210 HD
ENDBRANCH   7  13
ENDBRANCH   1   3
BRANCH   1  15
ATOM     15  C   LIG    1       27.364 -21.790   7.226  0.00  0.00    +0.178 C 
BRANCH  15  18
ATOM     16  C   LIG    1       23.518 -21.382   7.024  0.00  0.00    +0.179 C 
ATOM     17  N   LIG    1       24.957 -21.386   6.747  0.00  0.00    -0.285 N 
ATOM     18  C   LIG    1       25.884 -21.864   7.642  0.00  0.00    +0.230 C 
ATOM     19  O   LIG    1       25.547 -22.372   8.713  0.00  0.00    -0.274 OA
ATOM     20  C   LIG    1       25.269 -20.719   5.496  0.00  0.00    +0.109 C 
ATOM     21  C   LIG    1       23.935 -20.620   4.787  0.00  0.00    +0.022 C 
ATOM     22  C   LIG    1       22.963 -20.433   5.950  0.00  0.00    +0.039 C 
BRANCH  16  24
ATOM     23  N   LIG    1       22.479 -23.796   6.771  0.00  0.00    -0.195 NA
ATOM     24  C   LIG    1       22.892 -22.722   6.882  0.00  0.00    +0.085 C 
ENDBRANCH  16  24
ENDBRANCH  15  18
ENDBRANCH   1  15
TORSDOF 5
ENDMDL
MODEL 9
REMARK VINA RESULT:      -6.9      1.716      2.393
REMARK  Name = *****
REMARK                            x       y       z     vdW  Elec       q    Type
REMARK                         _______ _______ _______ _____ _____    ______ ____
ROOT
ATOM      1  N   LIG    1       27.495 -21.853   8.495  0.00  0.00    -0.302 NA
ATOM      2  H   LIG    1       27.492 -21.017   9.083  0.00  0.00    +0.123 HD
ENDROOT
BRANCH   1   3
ATOM      3  C   LIG    1       26.283 -21.873   7.652  0.00  0.00    +0.023 C 
ATOM      4  C   LIG    1       26.612 -21.251   6.258  0.00  0.00    +0.026 C 
ATOM      5  C   LIG    1       25.370 -21.285   5.336  0.00  0.00    -0.006 C 
ATOM      6  C   LIG    1       24.239 -20.472   5.982  0.00  0.00    +0.038 C 
ATOM      7  C   LIG    1       23.895 -21.064   7.358  0.00  0.00    +0.068 C 
ATOM      8  C   LIG    1       23.440 -22.523   7.192  0.00  0.00    +0.038 C 
ATOM      9  C   LIG    1       24.549 -23.347   6.519  0.00  0.00    -0.006 C 
ATOM     10  C   LIG    1       24.899 -22.737   5.156  0.00  0.00    +0.007 C 
ATOM     11  C   LIG    1       25.138 -21.027   8.263  0.00  0.00    +0.057 C 
ATOM     12  C   LIG    1       25.800 -23.324   7.405  0.00  0.00    +0.026 C 
BRANCH   7  13
ATOM     13  O   LIG    1       22.860 -20.301   7.964  0.00  0.00    -0.389 OA
ATOM     14  H   LIG    1       22.015 -20.754   7.799  0.00  0.00    +0.210 HD
ENDBRANCH   7  13
ENDBRANCH   1   3
BRANCH   1  15
ATOM     15  C   LIG    1       28.774 -21.880   7.742  0.00  0.00    +0.178 C 
BRANCH  15  18
ATOM     16  C   LIG    1       31.418 -19.286   8.875  0.00  0.00    +0.179 C 
ATOM     17  N   LIG    1       30.323 -19.989   8.200  0.00  0.00    -0.285 N 
ATOM     18  C   LIG    1       29.927 -21.258   8.548  0.00  0.00    +0.230 C 
ATOM     19  O   LIG    1       30.440 -21.857   9.496  0.00  0.00    -0.274 OA
ATOM     20  C   LIG    1       29.818 -19.238   7.064  0.00  0.00    +0.109 C 
ATOM     21  C   LIG    1       30.375 -17.845   7.265  0.00  0.00    +0.022 C 
ATOM     22  C   LIG    1       31.728 -18.127   7.916  0.00  0.00    +0.039 C 
BRANCH  16  24
ATOM     23  N   LIG    1       30.773 -18.391  11.273  0.00  0.00    -0.195 NA
ATOM     24  C   LIG    1       31.034 -18.749  10.205  0.00  0.00    +0.085 C 
ENDBRANCH  16  24
ENDBRANCH  15  18
ENDBRANCH   1  15
TORSDOF 5
ENDMDL
