MODEL 1
REMARK VINA RESULT:      -8.5      0.000      0.000
REMARK  Name = *****
REMARK                            x       y       z     vdW  Elec       q    Type
REMARK                         _______ _______ _______ _____ _____    ______ ____
ROOT
ATOM      1  C   LIG    1       24.650 -21.630   6.726  0.00  0.00    +0.132 C 
ATOM      2  C   LIG    1       25.936 -21.169   7.499  0.00  0.00    +0.011 C 
ATOM      3  C   LIG    1       25.530 -20.398   8.788  0.00  0.00    +0.015 C 
ATOM      4  C   LIG    1       26.611 -20.123   6.529  0.00  0.00    +0.002 C 
ATOM      5  C   LIG    1       28.019 -20.433   6.011  0.00  0.00    -0.003 C 
ATOM      6  C   LIG    1       28.845 -21.248   7.041  0.00  0.00    +0.003 C 
ATOM      7  C   LIG    1       28.080 -22.556   7.257  0.00  0.00    +0.005 C 
ATOM      8  C   LIG    1       29.681 -20.502   8.205  0.00  0.00    -0.004 C 
ATOM      9  C   LIG    1       30.368 -21.634   9.026  0.00  0.00    +0.016 C 
ATOM     10  C   LIG    1       30.447 -19.638   7.184  0.00  0.00    -0.059 C 
ATOM     11  C   LIG    1       31.731 -19.371   7.461  0.00  0.00    +0.049 C 
ATOM     12  C   LIG    1       31.643 -18.262   8.330  0.00  0.00    +0.163 A 
ATOM     13  C   LIG    1       30.647 -18.197   9.313  0.00  0.00    +0.019 A 
ATOM     14  C   LIG    1       30.959 -16.969   9.937  0.00  0.00    +0.161 A 
ATOM     15  N   LIG    1       31.798 -16.224   9.200  0.00  0.00    -0.086 NA
ATOM     16  O   LIG    1       32.220 -17.046   8.173  0.00  0.00    -0.355 OA
ATOM     17  C   LIG    1       29.514 -18.548   6.587  0.00  0.00    +0.032 C 
ATOM     18  C   LIG    1       29.460 -19.299   9.371  0.00  0.00    +0.051 C 
ATOM     19  C   LIG    1       28.744 -19.189   5.474  0.00  0.00    +0.008 C 
ATOM     20  C   LIG    1       25.642 -19.954   5.335  0.00  0.00    +0.008 C 
ATOM     21  C   LIG    1       26.806 -22.343   8.023  0.00  0.00    +0.011 C 
ATOM     22  C   LIG    1       24.298 -20.404   5.872  0.00  0.00    +0.049 C 
ENDROOT
BRANCH   1  24
ATOM     23  C   LIG    1       24.966 -23.842   5.214  0.00  0.00    +0.007 C 
ATOM     24  C   LIG    1       24.859 -22.809   5.881  0.00  0.00    -0.070 C 
ENDBRANCH   1  24
BRANCH   1  25
ATOM     25  O   LIG    1       23.606 -21.952   7.631  0.00  0.00    -0.376 OA
ATOM     26  H   LIG    1       23.420 -21.169   8.176  0.00  0.00    +0.211 HD
ENDBRANCH   1  25
TORSDOF 2
ENDMDL
MODEL 2
REMARK VINA RESULT:      -5.7      8.891     10.590
REMARK  Name = *****
REMARK                            x       y       z     vdW  Elec       q    Type
REMARK                         _______ _______ _______ _____ _____    ______ ____
ROOT
ATOM      1  C   LIG    1       23.765 -31.749   8.854  0.00  0.00    +0.132 C 
ATOM      2  C   LIG    1       23.911 -30.821  10.112  0.00  0.00    +0.011 C 
ATOM      3  C   LIG    1       22.582 -30.050  10.358  0.00  0.00    +0.015 C 
ATOM      4  C   LIG    1       24.991 -29.755   9.679  0.00  0.00    +0.002 C 
ATOM      5  C   LIG    1       26.291 -29.686  10.486  0.00  0.00    -0.003 C 
ATOM      6  C   LIG    1       26.069 -30.070  11.972  0.00  0.00    +0.003 C 
ATOM      7  C   LIG    1       25.547 -31.509  11.964  0.00  0.00    +0.005 C 
ATOM      8  C   LIG    1       25.605 -28.961  13.051  0.00  0.00    -0.004 C 
ATOM      9  C   LIG    1       25.489 -29.713  14.410  0.00  0.00    +0.016 C 
ATOM     10  C   LIG    1       26.797 -28.045  12.711  0.00  0.00    -0.059 C 
ATOM     11  C   LIG    1       27.348 -27.367  13.728  0.00  0.00    +0.049 C 
ATOM     12  C   LIG    1       26.513 -26.233  13.840  0.00  0.00    +0.163 A 
ATOM     13  C   LIG    1       25.124 -26.348  13.694  0.00  0.00    +0.019 A 
ATOM     14  C   LIG    1       24.716 -25.013  13.911  0.00  0.00    +0.161 A 
ATOM     15  N   LIG    1       25.742 -24.151  13.834  0.00  0.00    -0.086 NA
ATOM     16  O   LIG    1       26.880 -24.931  13.776  0.00  0.00    -0.355 OA
ATOM     17  C   LIG    1       26.591 -27.378  11.322  0.00  0.00    +0.032 C 
ATOM     18  C   LIG    1       24.447 -27.742  13.218  0.00  0.00    +0.051 C 
ATOM     19  C   LIG    1       27.045 -28.361  10.290  0.00  0.00    +0.008 C 
ATOM     20  C   LIG    1       25.312 -30.045   8.194  0.00  0.00    +0.008 C 
ATOM     21  C   LIG    1       24.144 -31.596  11.437  0.00  0.00    +0.011 C 
ATOM     22  C   LIG    1       24.105 -30.809   7.688  0.00  0.00    +0.049 C 
ENDROOT
BRANCH   1  24
ATOM     23  C   LIG    1       25.488 -33.825   8.861  0.00  0.00    +0.007 C 
ATOM     24  C   LIG    1       24.663 -32.907   8.866  0.00  0.00    -0.070 C 
ENDBRANCH   1  24
BRANCH   1  25
ATOM     25  O   LIG    1       22.443 -32.252   8.748  0.00  0.00    -0.376 OA
ATOM     26  H   LIG    1       22.261 -32.803   9.527  0.00  0.00    +0.211 HD
ENDBRANCH   1  25
TORSDOF 2
ENDMDL
MODEL 3
REMARK VINA RESULT:      -5.7      8.858     10.506
REMARK  Name = *****
REMARK                            x       y       z     vdW  Elec       q    Type
REMARK                         _______ _______ _______ _____ _____    ______ ____
ROOT
ATOM      1  C   LIG    1       23.512 -31.325  10.321  0.00  0.00    +0.132 C 
ATOM      2  C   LIG    1       23.805 -30.299  11.473  0.00  0.00    +0.011 C 
ATOM      3  C   LIG    1       22.533 -29.451  11.762  0.00  0.00    +0.015 C 
ATOM      4  C   LIG    1       24.880 -29.325  10.853  0.00  0.00    +0.002 C 
ATOM      5  C   LIG    1       26.250 -29.245  11.534  0.00  0.00    -0.003 C 
ATOM      6  C   LIG    1       26.149 -29.488  13.063  0.00  0.00    +0.003 C 
ATOM      7  C   LIG    1       25.576 -30.898  13.231  0.00  0.00    +0.005 C 
ATOM      8  C   LIG    1       25.826 -28.270  14.073  0.00  0.00    -0.004 C 
ATOM      9  C   LIG    1       25.806 -28.895  15.500  0.00  0.00    +0.016 C 
ATOM     10  C   LIG    1       27.016 -27.442  13.549  0.00  0.00    -0.059 C 
ATOM     11  C   LIG    1       27.681 -26.703  14.450  0.00  0.00    +0.049 C 
ATOM     12  C   LIG    1       26.903 -25.528  14.531  0.00  0.00    +0.163 A 
ATOM     13  C   LIG    1       25.503 -25.592  14.517  0.00  0.00    +0.019 A 
ATOM     14  C   LIG    1       25.167 -24.226  14.647  0.00  0.00    +0.161 A 
ATOM     15  N   LIG    1       26.212 -23.421  14.404  0.00  0.00    -0.086 NA
ATOM     16  O   LIG    1       27.311 -24.254  14.318  0.00  0.00    -0.355 OA
ATOM     17  C   LIG    1       26.710 -26.888  12.130  0.00  0.00    +0.032 C 
ATOM     18  C   LIG    1       24.734 -26.990  14.229  0.00  0.00    +0.051 C 
ATOM     19  C   LIG    1       27.032 -27.977  11.155  0.00  0.00    +0.008 C 
ATOM     20  C   LIG    1       25.055 -29.757   9.378  0.00  0.00    +0.008 C 
ATOM     21  C   LIG    1       24.128 -30.966  12.837  0.00  0.00    +0.011 C 
ATOM     22  C   LIG    1       23.780 -30.506   9.050  0.00  0.00    +0.049 C 
ENDROOT
BRANCH   1  24
ATOM     23  C   LIG    1       25.148 -33.470  10.358  0.00  0.00    +0.007 C 
ATOM     24  C   LIG    1       24.363 -32.517  10.360  0.00  0.00    -0.070 C 
ENDBRANCH   1  24
BRANCH   1  25
ATOM     25  O   LIG    1       22.168 -31.775  10.377  0.00  0.00    -0.376 OA
ATOM     26  H   LIG    1       22.128 -32.671  10.004  0.00  0.00    +0.211 HD
ENDBRANCH   1  25
TORSDOF 2
ENDMDL
