MODEL 1
REMARK VINA RESULT:       6.0      0.000      0.000
REMARK  Name = *****
REMARK                            x       y       z     vdW  Elec       q    Type
REMARK                         _______ _______ _______ _____ _____    ______ ____
ROOT
ATOM      1  C   LIG    1       28.235 -13.254   3.684  0.00  0.00    +0.132 C 
ATOM      2  C   LIG    1       27.507 -14.544   4.184  0.00  0.00    +0.011 C 
ATOM      3  C   LIG    1       28.489 -15.479   4.919  0.00  0.00    +0.015 C 
ATOM      4  C   LIG    1       27.022 -15.150   2.837  0.00  0.00    +0.002 C 
ATOM      5  C   LIG    1       25.897 -16.206   2.898  0.00  0.00    +0.001 C 
ATOM      6  C   LIG    1       24.764 -15.832   3.881  0.00  0.00    +0.023 C 
ATOM      7  C   LIG    1       25.312 -15.384   5.245  0.00  0.00    +0.009 C 
ATOM      8  C   LIG    1       23.748 -16.953   4.053  0.00  0.00    -0.041 A 
ATOM      9  C   LIG    1       24.032 -18.276   3.678  0.00  0.00    -0.041 A 
ATOM     10  C   LIG    1       23.052 -19.268   3.852  0.00  0.00    +0.049 A 
ATOM     11  C   LIG    1       21.804 -18.969   4.401  0.00  0.00    +0.120 A 
ATOM     12  C   LIG    1       21.527 -17.660   4.782  0.00  0.00    +0.046 A 
ATOM     13  C   LIG    1       25.333 -18.655   3.019  0.00  0.00    +0.036 C 
ATOM     14  C   LIG    1       22.491 -16.662   4.607  0.00  0.00    +0.008 A 
ATOM     15  C   LIG    1       26.432 -17.613   3.212  0.00  0.00    +0.009 C 
ATOM     16  C   LIG    1       26.597 -13.920   2.001  0.00  0.00    +0.008 C 
ATOM     17  C   LIG    1       26.301 -14.227   5.105  0.00  0.00    +0.011 C 
ATOM     18  C   LIG    1       27.319 -12.704   2.588  0.00  0.00    +0.049 C 
ENDROOT
BRANCH   1  20
ATOM     19  C   LIG    1       28.720 -11.447   5.594  0.00  0.00    +0.007 C 
ATOM     20  C   LIG    1       28.502 -12.255   4.732  0.00  0.00    -0.070 C 
ENDBRANCH   1  20
BRANCH   1  21
ATOM     21  O   LIG    1       29.475 -13.591   3.053  0.00  0.00    -0.376 OA
ATOM     22  H   LIG    1       29.327 -14.414   2.556  0.00  0.00    +0.211 HD
ENDBRANCH   1  21
BRANCH  11  23
ATOM     23  O   LIG    1       20.954 -20.036   4.506  0.00  0.00    -0.495 OA
ATOM     24  C   LIG    1       21.542 -21.299   4.789  0.00  0.00    +0.277 C 
ENDBRANCH  11  23
TORSDOF 3
ENDMDL
MODEL 2
REMARK VINA RESULT:       6.8      1.492      2.755
REMARK  Name = *****
REMARK                            x       y       z     vdW  Elec       q    Type
REMARK                         _______ _______ _______ _____ _____    ______ ____
ROOT
ATOM      1  C   LIG    1       26.957 -12.931   4.063  0.00  0.00    +0.132 C 
ATOM      2  C   LIG    1       26.067 -14.082   3.493  0.00  0.00    +0.011 C 
ATOM      3  C   LIG    1       25.406 -13.659   2.165  0.00  0.00    +0.015 C 
ATOM      4  C   LIG    1       25.027 -14.247   4.637  0.00  0.00    +0.002 C 
ATOM      5  C   LIG    1       24.216 -15.560   4.675  0.00  0.00    +0.001 C 
ATOM      6  C   LIG    1       25.077 -16.815   4.404  0.00  0.00    +0.023 C 
ATOM      7  C   LIG    1       25.974 -16.639   3.168  0.00  0.00    +0.009 C 
ATOM      8  C   LIG    1       24.241 -18.081   4.282  0.00  0.00    -0.041 A 
ATOM      9  C   LIG    1       22.856 -18.037   4.052  0.00  0.00    -0.041 A 
ATOM     10  C   LIG    1       22.133 -19.239   3.958  0.00  0.00    +0.049 A 
ATOM     11  C   LIG    1       22.764 -20.478   4.078  0.00  0.00    +0.120 A 
ATOM     12  C   LIG    1       24.138 -20.521   4.296  0.00  0.00    +0.046 A 
ATOM     13  C   LIG    1       22.103 -16.734   3.979  0.00  0.00    +0.036 C 
ATOM     14  C   LIG    1       24.867 -19.333   4.399  0.00  0.00    +0.008 A 
ATOM     15  C   LIG    1       23.006 -15.529   3.728  0.00  0.00    +0.009 C 
ATOM     16  C   LIG    1       25.854 -14.055   5.929  0.00  0.00    +0.008 C 
ATOM     17  C   LIG    1       26.859 -15.399   3.283  0.00  0.00    +0.011 C 
ATOM     18  C   LIG    1       27.115 -13.276   5.547  0.00  0.00    +0.049 C 
ENDROOT
BRANCH   1  20
ATOM     19  C   LIG    1       29.324 -12.642   2.855  0.00  0.00    +0.007 C 
ATOM     20  C   LIG    1       28.258 -12.771   3.393  0.00  0.00    -0.070 C 
ENDBRANCH   1  20
BRANCH   1  21
ATOM     21  O   LIG    1       26.259 -11.682   4.005  0.00  0.00    -0.376 OA
ATOM     22  H   LIG    1       26.835 -11.014   4.413  0.00  0.00    +0.211 HD
ENDBRANCH   1  21
BRANCH  11  23
ATOM     23  O   LIG    1       21.931 -21.558   3.968  0.00  0.00    -0.495 OA
ATOM     24  C   LIG    1       20.784 -21.571   4.809  0.00  0.00    +0.277 C 
ENDBRANCH  11  23
TORSDOF 3
ENDMDL
MODEL 3
REMARK VINA RESULT:       7.7      1.459      7.318
REMARK  Name = *****
REMARK                            x       y       z     vdW  Elec       q    Type
REMARK                         _______ _______ _______ _____ _____    ______ ____
ROOT
ATOM      1  C   LIG    1       22.118 -20.263   4.442  0.00  0.00    +0.132 C 
ATOM      2  C   LIG    1       22.962 -19.181   3.693  0.00  0.00    +0.011 C 
ATOM      3  C   LIG    1       23.218 -19.598   2.231  0.00  0.00    +0.015 C 
ATOM      4  C   LIG    1       24.266 -19.186   4.540  0.00  0.00    +0.002 C 
ATOM      5  C   LIG    1       25.205 -17.968   4.405  0.00  0.00    +0.001 C 
ATOM      6  C   LIG    1       24.452 -16.617   4.394  0.00  0.00    +0.023 C 
ATOM      7  C   LIG    1       23.261 -16.633   3.422  0.00  0.00    +0.009 C 
ATOM      8  C   LIG    1       25.370 -15.440   4.096  0.00  0.00    -0.041 A 
ATOM      9  C   LIG    1       26.639 -15.615   3.521  0.00  0.00    -0.041 A 
ATOM     10  C   LIG    1       27.447 -14.491   3.278  0.00  0.00    +0.049 A 
ATOM     11  C   LIG    1       27.011 -13.201   3.586  0.00  0.00    +0.120 A 
ATOM     12  C   LIG    1       25.750 -13.028   4.147  0.00  0.00    +0.046 A 
ATOM     13  C   LIG    1       27.197 -16.983   3.225  0.00  0.00    +0.036 C 
ATOM     14  C   LIG    1       24.939 -14.139   4.402  0.00  0.00    +0.008 A 
ATOM     15  C   LIG    1       26.128 -18.073   3.181  0.00  0.00    +0.009 C 
ATOM     16  C   LIG    1       23.772 -19.361   5.994  0.00  0.00    +0.008 C 
ATOM     17  C   LIG    1       22.297 -17.780   3.726  0.00  0.00    +0.011 C 
ATOM     18  C   LIG    1       22.375 -19.983   5.925  0.00  0.00    +0.049 C 
ENDROOT
BRANCH   1  20
ATOM     19  C   LIG    1       19.510 -20.232   3.855  0.00  0.00    +0.007 C 
ATOM     20  C   LIG    1       20.681 -20.251   4.120  0.00  0.00    -0.070 C 
ENDBRANCH   1  20
BRANCH   1  21
ATOM     21  O   LIG    1       22.632 -21.572   4.175  0.00  0.00    -0.376 OA
ATOM     22  H   LIG    1       22.142 -21.921   3.411  0.00  0.00    +0.211 HD
ENDBRANCH   1  21
BRANCH  11  23
ATOM     23  O   LIG    1       27.908 -12.209   3.296  0.00  0.00    -0.495 OA
ATOM     24  C   LIG    1       29.158 -12.258   3.971  0.00  0.00    +0.277 C 
ENDBRANCH  11  23
TORSDOF 3
ENDMDL
