MODEL 1
REMARK VINA RESULT:      -4.9      0.000      0.000
REMARK  Name = *****
REMARK                            x       y       z     vdW  Elec       q    Type
REMARK                         _______ _______ _______ _____ _____    ______ ____
ROOT
ATOM      1  C   LIG    1       26.749 -20.637   6.166  0.00  0.00    +0.122 A 
ATOM      2  C   LIG    1       26.624 -19.626   5.145  0.00  0.00    +0.070 A 
ATOM      3  C   LIG    1       25.595 -19.272   4.290  0.00  0.00    +0.057 A 
ATOM      4  C   LIG    1       24.459 -19.671   4.680  0.00  0.00    +0.092 A 
ATOM      5  C   LIG    1       24.364 -20.653   5.773  0.00  0.00    +0.006 A 
ATOM      6  C   LIG    1       23.175 -21.239   5.971  0.00  0.00    +0.012 A 
ATOM      7  C   LIG    1       22.067 -20.839   5.219  0.00  0.00    +0.020 A 
ATOM      8  C   LIG    1       22.217 -19.832   4.272  0.00  0.00    +0.111 A 
ATOM      9  N   LIG    1       23.360 -19.266   3.980  0.00  0.00    -0.253 NA
ATOM     10  C   LIG    1       25.531 -21.082   6.517  0.00  0.00    +0.055 A 
ENDROOT
BRANCH   1  12
ATOM     11  C   LIG    1       29.339 -20.574   7.017  0.00  0.00    +0.277 C 
ATOM     12  O   LIG    1       27.899 -21.147   6.846  0.00  0.00    -0.495 OA
ENDBRANCH   1  12
BRANCH   3  13
ATOM     13  N   LIG    1       26.000 -18.475   3.156  0.00  0.00    -0.340 N 
ATOM     14  H   LIG    1       26.851 -18.908   2.772  0.00  0.00    +0.146 HD
BRANCH  13  15
ATOM     15  C   LIG    1       26.035 -16.958   3.155  0.00  0.00    +0.067 C 
ATOM     16  C   LIG    1       27.364 -16.549   3.827  0.00  0.00    +0.027 C 
BRANCH  15  17
ATOM     17  C   LIG    1       24.897 -16.076   3.810  0.00  0.00    +0.023 C 
BRANCH  17  18
ATOM     18  C   LIG    1       25.063 -14.497   3.970  0.00  0.00    +0.017 C 
BRANCH  18  19
ATOM     19  C   LIG    1       23.927 -13.648   3.487  0.00  0.00    +0.078 C 
BRANCH  19  20
ATOM     20  N   LIG    1       23.900 -12.615   2.486  0.00  0.00    -0.330 NA
ATOM     21  H   LIG    1       24.867 -12.212   2.502  0.00  0.00    +0.118 HD
ATOM     22  H   LIG    1       23.390 -11.882   2.992  0.00  0.00    +0.118 HD
ENDBRANCH  19  20
ENDBRANCH  18  19
ENDBRANCH  17  18
ENDBRANCH  15  17
ENDBRANCH  13  15
ENDBRANCH   3  13
TORSDOF 7
ENDMDL
MODEL 2
REMARK VINA RESULT:      -4.9      2.167      3.789
REMARK  Name = *****
REMARK                            x       y       z     vdW  Elec       q    Type
REMARK                         _______ _______ _______ _____ _____    ______ ____
ROOT
ATOM      1  C   LIG    1       22.374 -18.846   4.378  0.00  0.00    +0.122 A 
ATOM      2  C   LIG    1       23.607 -18.611   3.667  0.00  0.00    +0.070 A 
ATOM      3  C   LIG    1       24.934 -18.864   3.971  0.00  0.00    +0.057 A 
ATOM      4  C   LIG    1       25.084 -19.743   4.870  0.00  0.00    +0.092 A 
ATOM      5  C   LIG    1       23.924 -20.182   5.664  0.00  0.00    +0.006 A 
ATOM      6  C   LIG    1       24.172 -20.906   6.764  0.00  0.00    +0.012 A 
ATOM      7  C   LIG    1       25.481 -21.296   7.062  0.00  0.00    +0.020 A 
ATOM      8  C   LIG    1       26.511 -20.924   6.205  0.00  0.00    +0.111 A 
ATOM      9  N   LIG    1       26.350 -20.163   5.154  0.00  0.00    -0.253 NA
ATOM     10  C   LIG    1       22.579 -19.739   5.361  0.00  0.00    +0.055 A 
ENDROOT
BRANCH   1  12
ATOM     11  C   LIG    1       19.997 -18.658   3.056  0.00  0.00    +0.277 C 
ATOM     12  O   LIG    1       21.054 -18.342   4.157  0.00  0.00    -0.495 OA
ENDBRANCH   1  12
BRANCH   3  13
ATOM     13  N   LIG    1       25.886 -18.126   3.176  0.00  0.00    -0.340 N 
ATOM     14  H   LIG    1       26.799 -18.586   3.296  0.00  0.00    +0.146 HD
BRANCH  13  15
ATOM     15  C   LIG    1       25.967 -16.612   3.137  0.00  0.00    +0.067 C 
ATOM     16  C   LIG    1       27.294 -16.225   3.823  0.00  0.00    +0.027 C 
BRANCH  15  17
ATOM     17  C   LIG    1       24.844 -15.680   3.748  0.00  0.00    +0.023 C 
BRANCH  17  18
ATOM     18  C   LIG    1       25.185 -14.218   4.286  0.00  0.00    +0.017 C 
BRANCH  18  19
ATOM     19  C   LIG    1       24.368 -13.089   3.736  0.00  0.00    +0.078 C 
BRANCH  19  20
ATOM     20  N   LIG    1       23.778 -12.917   2.435  0.00  0.00    -0.330 NA
ATOM     21  H   LIG    1       24.427 -12.260   1.941  0.00  0.00    +0.118 HD
ATOM     22  H   LIG    1       23.011 -12.275   2.665  0.00  0.00    +0.118 HD
ENDBRANCH  19  20
ENDBRANCH  18  19
ENDBRANCH  17  18
ENDBRANCH  15  17
ENDBRANCH  13  15
ENDBRANCH   3  13
TORSDOF 7
ENDMDL
MODEL 3
REMARK VINA RESULT:      -4.8      2.793      4.865
REMARK  Name = *****
REMARK                            x       y       z     vdW  Elec       q    Type
REMARK                         _______ _______ _______ _____ _____    ______ ____
ROOT
ATOM      1  C   LIG    1       25.226 -17.318   3.545  0.00  0.00    +0.122 A 
ATOM      2  C   LIG    1       25.960 -18.535   3.791  0.00  0.00    +0.070 A 
ATOM      3  C   LIG    1       25.613 -19.747   4.362  0.00  0.00    +0.057 A 
ATOM      4  C   LIG    1       24.364 -19.956   4.376  0.00  0.00    +0.092 A 
ATOM      5  C   LIG    1       23.436 -18.853   4.074  0.00  0.00    +0.006 A 
ATOM      6  C   LIG    1       22.140 -19.047   4.356  0.00  0.00    +0.012 A 
ATOM      7  C   LIG    1       21.707 -20.291   4.823  0.00  0.00    +0.020 A 
ATOM      8  C   LIG    1       22.634 -21.315   4.989  0.00  0.00    +0.111 A 
ATOM      9  N   LIG    1       23.921 -21.174   4.798  0.00  0.00    -0.253 NA
ATOM     10  C   LIG    1       23.907 -17.560   3.624  0.00  0.00    +0.055 A 
ENDROOT
BRANCH   1  12
ATOM     11  C   LIG    1       26.968 -15.221   3.571  0.00  0.00    +0.277 C 
ATOM     12  O   LIG    1       25.675 -16.006   3.196  0.00  0.00    -0.495 OA
ENDBRANCH   1  12
BRANCH   3  13
ATOM     13  N   LIG    1       26.731 -20.560   4.779  0.00  0.00    -0.340 N 
ATOM     14  H   LIG    1       26.891 -21.254   4.035  0.00  0.00    +0.146 HD
BRANCH  13  15
ATOM     15  C   LIG    1       26.899 -21.117   6.180  0.00  0.00    +0.067 C 
ATOM     16  C   LIG    1       25.836 -20.425   7.059  0.00  0.00    +0.027 C 
BRANCH  15  17
ATOM     17  C   LIG    1       28.268 -21.045   6.969  0.00  0.00    +0.023 C 
BRANCH  17  18
ATOM     18  C   LIG    1       29.474 -20.137   6.453  0.00  0.00    +0.017 C 
BRANCH  18  19
ATOM     19  C   LIG    1       29.149 -18.717   6.105  0.00  0.00    +0.078 C 
BRANCH  19  20
ATOM     20  N   LIG    1       29.087 -18.065   4.824  0.00  0.00    -0.330 NA
ATOM     21  H   LIG    1       29.976 -17.514   4.769  0.00  0.00    +0.118 HD
ATOM     22  H   LIG    1       28.420 -17.313   5.032  0.00  0.00    +0.118 HD
ENDBRANCH  19  20
ENDBRANCH  18  19
ENDBRANCH  17  18
ENDBRANCH  15  17
ENDBRANCH  13  15
ENDBRANCH   3  13
TORSDOF 7
ENDMDL
MODEL 4
REMARK VINA RESULT:      -3.3      2.877      5.912
REMARK  Name = *****
REMARK                            x       y       z     vdW  Elec       q    Type
REMARK                         _______ _______ _______ _____ _____    ______ ____
ROOT
ATOM      1  C   LIG    1       26.549 -16.404   3.275  0.00  0.00    +0.122 A 
ATOM      2  C   LIG    1       25.803 -17.634   3.388  0.00  0.00    +0.070 A 
ATOM      3  C   LIG    1       26.122 -18.889   3.877  0.00  0.00    +0.057 A 
ATOM      4  C   LIG    1       27.117 -18.884   4.660  0.00  0.00    +0.092 A 
ATOM      5  C   LIG    1       27.970 -17.687   4.751  0.00  0.00    +0.006 A 
ATOM      6  C   LIG    1       29.146 -17.818   5.381  0.00  0.00    +0.012 A 
ATOM      7  C   LIG    1       29.474 -19.026   6.000  0.00  0.00    +0.020 A 
ATOM      8  C   LIG    1       28.570 -20.081   5.953  0.00  0.00    +0.111 A 
ATOM      9  N   LIG    1       27.436 -20.045   5.300  0.00  0.00    -0.253 NA
ATOM     10  C   LIG    1       27.629 -16.454   4.073  0.00  0.00    +0.055 A 
ENDROOT
BRANCH   1  12
ATOM     11  C   LIG    1       26.923 -13.790   2.598  0.00  0.00    +0.277 C 
ATOM     12  O   LIG    1       26.284 -15.210   2.535  0.00  0.00    -0.495 OA
ENDBRANCH   1  12
BRANCH   3  13
ATOM     13  N   LIG    1       25.235 -19.945   3.452  0.00  0.00    -0.340 N 
ATOM     14  H   LIG    1       25.534 -20.228   2.508  0.00  0.00    +0.146 HD
BRANCH  13  15
ATOM     15  C   LIG    1       23.729 -19.910   3.629  0.00  0.00    +0.067 C 
ATOM     16  C   LIG    1       23.385 -18.516   4.195  0.00  0.00    +0.027 C 
BRANCH  15  17
ATOM     17  C   LIG    1       22.947 -20.969   4.506  0.00  0.00    +0.023 C 
BRANCH  17  18
ATOM     18  C   LIG    1       22.687 -20.724   6.062  0.00  0.00    +0.017 C 
BRANCH  18  19
ATOM     19  C   LIG    1       23.779 -21.136   7.001  0.00  0.00    +0.078 C 
BRANCH  19  20
ATOM     20  N   LIG    1       25.156 -20.725   7.062  0.00  0.00    -0.330 NA
ATOM     21  H   LIG    1       25.669 -21.449   6.504  0.00  0.00    +0.118 HD
ATOM     22  H   LIG    1       25.396 -21.027   8.013  0.00  0.00    +0.118 HD
ENDBRANCH  19  20
ENDBRANCH  18  19
ENDBRANCH  17  18
ENDBRANCH  15  17
ENDBRANCH  13  15
ENDBRANCH   3  13
TORSDOF 7
ENDMDL
MODEL 5
REMARK VINA RESULT:      -3.2      2.387      5.182
REMARK  Name = *****
REMARK                            x       y       z     vdW  Elec       q    Type
REMARK                         _______ _______ _______ _____ _____    ______ ____
ROOT
ATOM      1  C   LIG    1       26.847 -17.329   3.813  0.00  0.00    +0.122 A 
ATOM      2  C   LIG    1       25.884 -18.343   4.164  0.00  0.00    +0.070 A 
ATOM      3  C   LIG    1       25.994 -19.572   4.792  0.00  0.00    +0.057 A 
ATOM      4  C   LIG    1       27.054 -19.694   5.472  0.00  0.00    +0.092 A 
ATOM      5  C   LIG    1       28.139 -18.711   5.318  0.00  0.00    +0.006 A 
ATOM      6  C   LIG    1       29.330 -19.021   5.850  0.00  0.00    +0.012 A 
ATOM      7  C   LIG    1       29.474 -20.192   6.599  0.00  0.00    +0.020 A 
ATOM      8  C   LIG    1       28.373 -21.021   6.782  0.00  0.00    +0.111 A 
ATOM      9  N   LIG    1       27.202 -20.814   6.236  0.00  0.00    -0.253 NA
ATOM     10  C   LIG    1       27.981 -17.520   4.509  0.00  0.00    +0.055 A 
ENDROOT
BRANCH   1  12
ATOM     11  C   LIG    1       26.818 -14.668   3.219  0.00  0.00    +0.277 C 
ATOM     12  O   LIG    1       26.746 -16.200   2.941  0.00  0.00    -0.495 OA
ENDBRANCH   1  12
BRANCH   3  13
ATOM     13  N   LIG    1       24.864 -20.451   4.600  0.00  0.00    -0.340 N 
ATOM     14  H   LIG    1       24.724 -20.543   3.585  0.00  0.00    +0.146 HD
BRANCH  13  15
ATOM     15  C   LIG    1       23.572 -20.355   5.389  0.00  0.00    +0.067 C 
ATOM     16  C   LIG    1       23.548 -21.569   6.342  0.00  0.00    +0.027 C 
BRANCH  15  17
ATOM     17  C   LIG    1       22.151 -20.285   4.696  0.00  0.00    +0.023 C 
BRANCH  17  18
ATOM     18  C   LIG    1       21.634 -18.945   4.002  0.00  0.00    +0.017 C 
BRANCH  18  19
ATOM     19  C   LIG    1       22.427 -17.701   4.262  0.00  0.00    +0.078 C 
BRANCH  19  20
ATOM     20  N   LIG    1       22.056 -16.488   4.942  0.00  0.00    -0.330 NA
ATOM     21  H   LIG    1       22.699 -15.762   4.547  0.00  0.00    +0.118 HD
ATOM     22  H   LIG    1       22.500 -16.646   5.854  0.00  0.00    +0.118 HD
ENDBRANCH  19  20
ENDBRANCH  18  19
ENDBRANCH  17  18
ENDBRANCH  15  17
ENDBRANCH  13  15
ENDBRANCH   3  13
TORSDOF 7
ENDMDL
MODEL 6
REMARK VINA RESULT:      -2.8      1.812      5.613
REMARK  Name = *****
REMARK                            x       y       z     vdW  Elec       q    Type
REMARK                         _______ _______ _______ _____ _____    ______ ____
ROOT
ATOM      1  C   LIG    1       28.312 -17.758   4.799  0.00  0.00    +0.122 A 
ATOM      2  C   LIG    1       27.127 -18.085   4.045  0.00  0.00    +0.070 A 
ATOM      3  C   LIG    1       26.101 -17.318   3.520  0.00  0.00    +0.057 A 
ATOM      4  C   LIG    1       26.407 -16.097   3.383  0.00  0.00    +0.092 A 
ATOM      5  C   LIG    1       27.630 -15.575   4.016  0.00  0.00    +0.006 A 
ATOM      6  C   LIG    1       27.773 -14.243   4.069  0.00  0.00    +0.012 A 
ATOM      7  C   LIG    1       26.832 -13.416   3.451  0.00  0.00    +0.020 A 
ATOM      8  C   LIG    1       25.754 -13.991   2.787  0.00  0.00    +0.111 A 
ATOM      9  N   LIG    1       25.516 -15.278   2.754  0.00  0.00    -0.253 NA
ATOM     10  C   LIG    1       28.577 -16.446   4.682  0.00  0.00    +0.055 A 
ENDROOT
BRANCH   1  12
ATOM     11  C   LIG    1       28.976 -19.907   6.339  0.00  0.00    +0.277 C 
ATOM     12  O   LIG    1       29.207 -18.585   5.547  0.00  0.00    -0.495 OA
ENDBRANCH   1  12
BRANCH   3  13
ATOM     13  N   LIG    1       24.909 -18.057   3.178  0.00  0.00    -0.340 N 
ATOM     14  H   LIG    1       24.182 -17.366   2.946  0.00  0.00    +0.146 HD
BRANCH  13  15
ATOM     15  C   LIG    1       24.391 -19.244   3.968  0.00  0.00    +0.067 C 
ATOM     16  C   LIG    1       24.536 -20.479   3.052  0.00  0.00    +0.027 C 
BRANCH  15  17
ATOM     17  C   LIG    1       22.934 -19.294   4.580  0.00  0.00    +0.023 C 
BRANCH  17  18
ATOM     18  C   LIG    1       22.340 -20.641   5.195  0.00  0.00    +0.017 C 
BRANCH  18  19
ATOM     19  C   LIG    1       23.019 -21.181   6.416  0.00  0.00    +0.078 C 
BRANCH  19  20
ATOM     20  N   LIG    1       24.237 -20.769   7.061  0.00  0.00    -0.330 NA
ATOM     21  H   LIG    1       24.368 -21.462   7.835  0.00  0.00    +0.118 HD
ATOM     22  H   LIG    1       23.898 -19.961   7.596  0.00  0.00    +0.118 HD
ENDBRANCH  19  20
ENDBRANCH  18  19
ENDBRANCH  17  18
ENDBRANCH  15  17
ENDBRANCH  13  15
ENDBRANCH   3  13
TORSDOF 7
ENDMDL
MODEL 7
REMARK VINA RESULT:      -2.8      2.605      6.008
REMARK  Name = *****
REMARK                            x       y       z     vdW  Elec       q    Type
REMARK                         _______ _______ _______ _____ _____    ______ ____
ROOT
ATOM      1  C   LIG    1       22.399 -17.708   4.111  0.00  0.00    +0.122 A 
ATOM      2  C   LIG    1       23.594 -18.511   4.032  0.00  0.00    +0.070 A 
ATOM      3  C   LIG    1       24.899 -18.226   3.669  0.00  0.00    +0.057 A 
ATOM      4  C   LIG    1       25.180 -16.994   3.732  0.00  0.00    +0.092 A 
ATOM      5  C   LIG    1       24.100 -16.005   3.892  0.00  0.00    +0.006 A 
ATOM      6  C   LIG    1       24.412 -14.717   3.690  0.00  0.00    +0.012 A 
ATOM      7  C   LIG    1       25.737 -14.352   3.438  0.00  0.00    +0.020 A 
ATOM      8  C   LIG    1       26.718 -15.337   3.401  0.00  0.00    +0.111 A 
ATOM      9  N   LIG    1       26.474 -16.617   3.522  0.00  0.00    -0.253 NA
ATOM     10  C   LIG    1       22.727 -16.405   4.118  0.00  0.00    +0.055 A 
ENDROOT
BRANCH   1  12
ATOM     11  C   LIG    1       19.960 -18.481   3.168  0.00  0.00    +0.277 C 
ATOM     12  O   LIG    1       21.024 -18.081   4.235  0.00  0.00    -0.495 OA
ENDBRANCH   1  12
BRANCH   3  13
ATOM     13  N   LIG    1       25.701 -19.382   3.345  0.00  0.00    -0.340 N 
ATOM     14  H   LIG    1       25.338 -19.761   2.459  0.00  0.00    +0.146 HD
BRANCH  13  15
ATOM     15  C   LIG    1       26.096 -20.449   4.348  0.00  0.00    +0.067 C 
ATOM     16  C   LIG    1       24.843 -21.323   4.577  0.00  0.00    +0.027 C 
BRANCH  15  17
ATOM     17  C   LIG    1       26.683 -20.104   5.776  0.00  0.00    +0.023 C 
BRANCH  17  18
ATOM     18  C   LIG    1       28.246 -20.215   6.076  0.00  0.00    +0.017 C 
BRANCH  18  19
ATOM     19  C   LIG    1       29.076 -19.003   5.783  0.00  0.00    +0.078 C 
BRANCH  19  20
ATOM     20  N   LIG    1       28.913 -17.986   4.778  0.00  0.00    -0.330 NA
ATOM     21  H   LIG    1       29.428 -17.158   5.161  0.00  0.00    +0.118 HD
ATOM     22  H   LIG    1       27.945 -17.699   4.963  0.00  0.00    +0.118 HD
ENDBRANCH  19  20
ENDBRANCH  18  19
ENDBRANCH  17  18
ENDBRANCH  15  17
ENDBRANCH  13  15
ENDBRANCH   3  13
TORSDOF 7
ENDMDL
MODEL 8
REMARK VINA RESULT:      -2.8      1.854      5.763
REMARK  Name = *****
REMARK                            x       y       z     vdW  Elec       q    Type
REMARK                         _______ _______ _______ _____ _____    ______ ____
ROOT
ATOM      1  C   LIG    1       27.605 -16.893   4.093  0.00  0.00    +0.122 A 
ATOM      2  C   LIG    1       26.314 -17.404   3.701  0.00  0.00    +0.070 A 
ATOM      3  C   LIG    1       25.051 -16.839   3.654  0.00  0.00    +0.057 A 
ATOM      4  C   LIG    1       25.068 -15.573   3.634  0.00  0.00    +0.092 A 
ATOM      5  C   LIG    1       26.317 -14.854   3.933  0.00  0.00    +0.006 A 
ATOM      6  C   LIG    1       26.227 -13.536   4.159  0.00  0.00    +0.012 A 
ATOM      7  C   LIG    1       25.000 -12.885   4.011  0.00  0.00    +0.020 A 
ATOM      8  C   LIG    1       23.883 -13.620   3.628  0.00  0.00    +0.111 A 
ATOM      9  N   LIG    1       23.885 -14.918   3.458  0.00  0.00    -0.253 NA
ATOM     10  C   LIG    1       27.574 -15.550   4.118  0.00  0.00    +0.055 A 
ENDROOT
BRANCH   1  12
ATOM     11  C   LIG    1       29.245 -18.524   5.537  0.00  0.00    +0.277 C 
ATOM     12  O   LIG    1       28.834 -17.567   4.377  0.00  0.00    -0.495 OA
ENDBRANCH   1  12
BRANCH   3  13
ATOM     13  N   LIG    1       23.968 -17.790   3.581  0.00  0.00    -0.340 N 
ATOM     14  H   LIG    1       23.101 -17.276   3.792  0.00  0.00    +0.146 HD
BRANCH  13  15
ATOM     15  C   LIG    1       24.016 -19.179   4.190  0.00  0.00    +0.067 C 
ATOM     16  C   LIG    1       24.171 -20.169   3.015  0.00  0.00    +0.027 C 
BRANCH  15  17
ATOM     17  C   LIG    1       22.869 -19.746   5.120  0.00  0.00    +0.023 C 
BRANCH  17  18
ATOM     18  C   LIG    1       23.191 -20.770   6.300  0.00  0.00    +0.017 C 
BRANCH  18  19
ATOM     19  C   LIG    1       24.628 -20.910   6.698  0.00  0.00    +0.078 C 
BRANCH  19  20
ATOM     20  N   LIG    1       25.717 -21.571   6.030  0.00  0.00    -0.330 NA
ATOM     21  H   LIG    1       25.642 -22.570   6.336  0.00  0.00    +0.118 HD
ATOM     22  H   LIG    1       26.504 -21.263   6.612  0.00  0.00    +0.118 HD
ENDBRANCH  19  20
ENDBRANCH  18  19
ENDBRANCH  17  18
ENDBRANCH  15  17
ENDBRANCH  13  15
ENDBRANCH   3  13
TORSDOF 7
ENDMDL
MODEL 9
REMARK VINA RESULT:      -2.8      2.928      4.160
REMARK  Name = *****
REMARK                            x       y       z     vdW  Elec       q    Type
REMARK                         _______ _______ _______ _____ _____    ______ ____
ROOT
ATOM      1  C   LIG    1       23.344 -16.162   4.233  0.00  0.00    +0.122 A 
ATOM      2  C   LIG    1       24.517 -16.761   3.645  0.00  0.00    +0.070 A 
ATOM      3  C   LIG    1       25.011 -18.054   3.633  0.00  0.00    +0.057 A 
ATOM      4  C   LIG    1       24.134 -18.928   3.895  0.00  0.00    +0.092 A 
ATOM      5  C   LIG    1       22.829 -18.515   4.436  0.00  0.00    +0.006 A 
ATOM      6  C   LIG    1       22.042 -19.475   4.941  0.00  0.00    +0.012 A 
ATOM      7  C   LIG    1       22.431 -20.814   4.851  0.00  0.00    +0.020 A 
ATOM      8  C   LIG    1       23.636 -21.131   4.235  0.00  0.00    +0.111 A 
ATOM      9  N   LIG    1       24.483 -20.242   3.782  0.00  0.00    -0.253 NA
ATOM     10  C   LIG    1       22.458 -17.120   4.553  0.00  0.00    +0.055 A 
ENDROOT
BRANCH   1  12
ATOM     11  C   LIG    1       23.779 -13.472   4.173  0.00  0.00    +0.277 C 
ATOM     12  O   LIG    1       22.998 -14.792   4.450  0.00  0.00    -0.495 OA
ENDBRANCH   1  12
BRANCH   3  13
ATOM     13  N   LIG    1       26.405 -18.164   3.272  0.00  0.00    -0.340 N 
ATOM     14  H   LIG    1       26.691 -19.133   3.469  0.00  0.00    +0.146 HD
BRANCH  13  15
ATOM     15  C   LIG    1       27.458 -17.132   3.632  0.00  0.00    +0.067 C 
ATOM     16  C   LIG    1       28.300 -17.743   4.773  0.00  0.00    +0.027 C 
BRANCH  15  17
ATOM     17  C   LIG    1       27.094 -15.656   4.067  0.00  0.00    +0.023 C 
BRANCH  17  18
ATOM     18  C   LIG    1       27.296 -14.426   3.071  0.00  0.00    +0.017 C 
BRANCH  18  19
ATOM     19  C   LIG    1       28.090 -13.265   3.584  0.00  0.00    +0.078 C 
BRANCH  19  20
ATOM     20  N   LIG    1       29.475 -12.927   3.387  0.00  0.00    -0.330 NA
ATOM     21  H   LIG    1       30.000 -13.748   3.770  0.00  0.00    +0.118 HD
ATOM     22  H   LIG    1       29.610 -12.254   4.150  0.00  0.00    +0.118 HD
ENDBRANCH  19  20
ENDBRANCH  18  19
ENDBRANCH  17  18
ENDBRANCH  15  17
ENDBRANCH  13  15
ENDBRANCH   3  13
TORSDOF 7
ENDMDL
