MODEL 1
REMARK VINA RESULT:      -4.3      0.000      0.000
REMARK  Name = *****
REMARK                            x       y       z     vdW  Elec       q    Type
REMARK                         _______ _______ _______ _____ _____    ______ ____
ROOT
ATOM      1  C   LIG    1       25.913 -17.072   3.644  0.00  0.00    +0.080 A 
ATOM      2  C   LIG    1       27.244 -17.048   4.109  0.00  0.00    +0.132 A 
ATOM      3  C   LIG    1       27.917 -15.818   4.216  0.00  0.00    +0.048 A 
ATOM      4  C   LIG    1       27.258 -14.617   3.950  0.00  0.00    +0.032 A 
ATOM      5  C   LIG    1       25.940 -14.641   3.508  0.00  0.00    +0.106 A 
ATOM      6  C   LIG    1       25.273 -15.860   3.326  0.00  0.00    +0.045 A 
ENDROOT
BRANCH   1   9
ATOM      7  N   LIG    1       25.750 -19.511   3.515  0.00  0.00    -0.310 N 
ATOM      8  H   LIG    1       26.761 -19.480   3.496  0.00  0.00    +0.149 HD
ATOM      9  C   LIG    1       25.078 -18.313   3.521  0.00  0.00    +0.248 C 
ATOM     10  O   LIG    1       23.855 -18.227   3.493  0.00  0.00    -0.270 OA
BRANCH   7  11
ATOM     11  C   LIG    1       25.089 -20.808   3.428  0.00  0.00    +0.123 C 
BRANCH  11  13
ATOM     12  N   LIG    1       25.226 -20.746   5.959  0.00  0.00    -0.298 NA
ATOM     13  C   LIG    1       24.543 -21.329   4.783  0.00  0.00    +0.074 C 
ATOM     14  C   LIG    1       23.070 -20.974   4.992  0.00  0.00    +0.021 C 
ATOM     15  C   LIG    1       22.892 -20.986   6.495  0.00  0.00    +0.017 C 
ATOM     16  C   LIG    1       24.263 -20.664   7.061  0.00  0.00    +0.085 C 
BRANCH  12  18
ATOM     17  C   LIG    1       27.471 -20.630   7.042  0.00  0.00    +0.020 C 
ATOM     18  C   LIG    1       26.439 -21.494   6.323  0.00  0.00    +0.081 C 
ENDBRANCH  12  18
ENDBRANCH  11  13
ENDBRANCH   7  11
ENDBRANCH   1   9
BRANCH   5  19
ATOM     19  S   LIG    1       25.035 -13.127   3.346  0.00  0.00    +0.056 S 
ATOM     20  O   LIG    1       25.548 -12.404   2.199  0.00  0.00    -0.153 OA
ATOM     21  O   LIG    1       24.898 -12.515   4.636  0.00  0.00    -0.153 OA
BRANCH  19  22
ATOM     22  N   LIG    1       23.503 -13.645   2.904  0.00  0.00    -0.203 NA
ATOM     23  H   LIG    1       23.449 -13.732   1.889  0.00  0.00    +0.144 HD
ATOM     24  H   LIG    1       22.808 -13.002   3.289  0.00  0.00    +0.144 HD
ENDBRANCH  19  22
ENDBRANCH   5  19
BRANCH   2  25
ATOM     25  O   LIG    1       27.851 -18.240   4.417  0.00  0.00    -0.494 OA
ATOM     26  C   LIG    1       29.078 -18.143   5.137  0.00  0.00    +0.277 C 
ENDBRANCH   2  25
TORSDOF 7
ENDMDL
MODEL 2
REMARK VINA RESULT:      -4.1      2.178      2.993
REMARK  Name = *****
REMARK                            x       y       z     vdW  Elec       q    Type
REMARK                         _______ _______ _______ _____ _____    ______ ____
ROOT
ATOM      1  C   LIG    1       25.244 -16.005   3.815  0.00  0.00    +0.080 A 
ATOM      2  C   LIG    1       24.054 -15.322   4.139  0.00  0.00    +0.132 A 
ATOM      3  C   LIG    1       24.109 -13.958   4.476  0.00  0.00    +0.048 A 
ATOM      4  C   LIG    1       25.312 -13.254   4.411  0.00  0.00    +0.032 A 
ATOM      5  C   LIG    1       26.483 -13.924   4.075  0.00  0.00    +0.106 A 
ATOM      6  C   LIG    1       26.462 -15.299   3.804  0.00  0.00    +0.045 A 
ENDROOT
BRANCH   1   9
ATOM      7  N   LIG    1       24.271 -18.251   3.800  0.00  0.00    -0.310 N 
ATOM      8  H   LIG    1       23.580 -17.850   4.420  0.00  0.00    +0.149 HD
ATOM      9  C   LIG    1       25.312 -17.447   3.404  0.00  0.00    +0.248 C 
ATOM     10  O   LIG    1       26.233 -17.838   2.696  0.00  0.00    -0.270 OA
BRANCH   7  11
ATOM     11  C   LIG    1       24.169 -19.667   3.464  0.00  0.00    +0.123 C 
BRANCH  11  13
ATOM     12  N   LIG    1       25.088 -20.115   5.785  0.00  0.00    -0.298 NA
ATOM     13  C   LIG    1       24.221 -20.611   4.692  0.00  0.00    +0.074 C 
ATOM     14  C   LIG    1       22.852 -20.786   5.351  0.00  0.00    +0.021 C 
ATOM     15  C   LIG    1       23.171 -21.178   6.778  0.00  0.00    +0.017 C 
ATOM     16  C   LIG    1       24.536 -20.577   7.061  0.00  0.00    +0.085 C 
BRANCH  12  18
ATOM     17  C   LIG    1       27.282 -20.504   6.907  0.00  0.00    +0.020 C 
ATOM     18  C   LIG    1       26.492 -20.509   5.601  0.00  0.00    +0.081 C 
ENDBRANCH  12  18
ENDBRANCH  11  13
ENDBRANCH   7  11
ENDBRANCH   1   9
BRANCH   5  19
ATOM     19  S   LIG    1       27.978 -13.013   3.807  0.00  0.00    +0.056 S 
ATOM     20  O   LIG    1       27.704 -11.945   2.867  0.00  0.00    -0.153 OA
ATOM     21  O   LIG    1       29.066 -13.929   3.626  0.00  0.00    -0.153 OA
BRANCH  19  22
ATOM     22  N   LIG    1       28.234 -12.261   5.283  0.00  0.00    -0.203 NA
ATOM     23  H   LIG    1       27.999 -12.902   6.041  0.00  0.00    +0.144 HD
ATOM     24  H   LIG    1       27.698 -11.391   5.313  0.00  0.00    +0.144 HD
ENDBRANCH  19  22
ENDBRANCH   5  19
BRANCH   2  25
ATOM     25  O   LIG    1       22.876 -16.026   4.142  0.00  0.00    -0.494 OA
ATOM     26  C   LIG    1       22.101 -15.933   5.335  0.00  0.00    +0.277 C 
ENDBRANCH   2  25
TORSDOF 7
ENDMDL
MODEL 3
REMARK VINA RESULT:      -3.0      3.339      6.743
REMARK  Name = *****
REMARK                            x       y       z     vdW  Elec       q    Type
REMARK                         _______ _______ _______ _____ _____    ______ ____
ROOT
ATOM      1  C   LIG    1       27.008 -19.488   5.477  0.00  0.00    +0.080 A 
ATOM      2  C   LIG    1       27.395 -20.376   6.501  0.00  0.00    +0.132 A 
ATOM      3  C   LIG    1       26.496 -21.365   6.935  0.00  0.00    +0.048 A 
ATOM      4  C   LIG    1       25.260 -21.532   6.309  0.00  0.00    +0.032 A 
ATOM      5  C   LIG    1       24.885 -20.665   5.288  0.00  0.00    +0.106 A 
ATOM      6  C   LIG    1       25.738 -19.628   4.887  0.00  0.00    +0.045 A 
ENDROOT
BRANCH   1   9
ATOM      7  N   LIG    1       27.266 -17.272   4.466  0.00  0.00    -0.310 N 
ATOM      8  H   LIG    1       26.255 -17.262   4.468  0.00  0.00    +0.149 HD
ATOM      9  C   LIG    1       27.889 -18.416   4.903  0.00  0.00    +0.248 C 
ATOM     10  O   LIG    1       29.106 -18.564   4.899  0.00  0.00    -0.270 OA
BRANCH   7  11
ATOM     11  C   LIG    1       27.977 -16.128   3.907  0.00  0.00    +0.123 C 
BRANCH  11  13
ATOM     12  N   LIG    1       27.624 -13.802   2.961  0.00  0.00    -0.298 NA
ATOM     13  C   LIG    1       27.172 -14.803   3.954  0.00  0.00    +0.074 C 
ATOM     14  C   LIG    1       25.692 -15.008   3.631  0.00  0.00    +0.021 C 
ATOM     15  C   LIG    1       25.227 -13.658   3.130  0.00  0.00    +0.017 C 
ATOM     16  C   LIG    1       26.468 -12.997   2.555  0.00  0.00    +0.085 C 
BRANCH  12  18
ATOM     17  C   LIG    1       28.475 -12.441   4.872  0.00  0.00    +0.020 C 
ATOM     18  C   LIG    1       28.733 -12.980   3.468  0.00  0.00    +0.081 C 
ENDBRANCH  12  18
ENDBRANCH  11  13
ENDBRANCH   7  11
ENDBRANCH   1   9
BRANCH   5  19
ATOM     19  S   LIG    1       23.408 -20.976   4.362  0.00  0.00    +0.056 S 
ATOM     20  O   LIG    1       22.423 -21.563   5.249  0.00  0.00    -0.153 OA
ATOM     21  O   LIG    1       23.752 -21.572   3.104  0.00  0.00    -0.153 OA
BRANCH  19  22
ATOM     22  N   LIG    1       22.844 -19.436   4.017  0.00  0.00    -0.203 NA
ATOM     23  H   LIG    1       23.203 -19.133   3.112  0.00  0.00    +0.144 HD
ATOM     24  H   LIG    1       23.101 -18.806   4.781  0.00  0.00    +0.144 HD
ENDBRANCH  19  22
ENDBRANCH   5  19
BRANCH   2  25
ATOM     25  O   LIG    1       28.639 -20.226   7.062  0.00  0.00    -0.494 OA
ATOM     26  C   LIG    1       29.475 -21.381   7.034  0.00  0.00    +0.277 C 
ENDBRANCH   2  25
TORSDOF 7
ENDMDL
MODEL 4
REMARK VINA RESULT:      -2.8      3.122      6.942
REMARK  Name = *****
REMARK                            x       y       z     vdW  Elec       q    Type
REMARK                         _______ _______ _______ _____ _____    ______ ____
ROOT
ATOM      1  C   LIG    1       25.052 -19.499   4.699  0.00  0.00    +0.080 A 
ATOM      2  C   LIG    1       24.195 -20.408   5.352  0.00  0.00    +0.132 A 
ATOM      3  C   LIG    1       24.737 -21.354   6.239  0.00  0.00    +0.048 A 
ATOM      4  C   LIG    1       26.098 -21.350   6.545  0.00  0.00    +0.032 A 
ATOM      5  C   LIG    1       26.941 -20.442   5.912  0.00  0.00    +0.106 A 
ATOM      6  C   LIG    1       26.432 -19.537   4.971  0.00  0.00    +0.045 A 
ENDROOT
BRANCH   1   9
ATOM      7  N   LIG    1       25.282 -17.234   3.798  0.00  0.00    -0.310 N 
ATOM      8  H   LIG    1       25.986 -17.126   4.516  0.00  0.00    +0.149 HD
ATOM      9  C   LIG    1       24.592 -18.422   3.761  0.00  0.00    +0.248 C 
ATOM     10  O   LIG    1       23.682 -18.647   2.970  0.00  0.00    -0.270 OA
BRANCH   7  11
ATOM     11  C   LIG    1       24.980 -16.097   2.937  0.00  0.00    +0.123 C 
BRANCH  11  13
ATOM     12  N   LIG    1       25.271 -14.010   4.348  0.00  0.00    -0.298 NA
ATOM     13  C   LIG    1       25.822 -14.831   3.247  0.00  0.00    +0.074 C 
ATOM     14  C   LIG    1       27.239 -15.172   3.708  0.00  0.00    +0.021 C 
ATOM     15  C   LIG    1       27.671 -13.966   4.514  0.00  0.00    +0.017 C 
ATOM     16  C   LIG    1       26.385 -13.359   5.043  0.00  0.00    +0.085 C 
BRANCH  12  18
ATOM     17  C   LIG    1       24.701 -12.310   2.613  0.00  0.00    +0.020 C 
ATOM     18  C   LIG    1       24.263 -13.050   3.874  0.00  0.00    +0.081 C 
ENDBRANCH  12  18
ENDBRANCH  11  13
ENDBRANCH   7  11
ENDBRANCH   1   9
BRANCH   5  19
ATOM     19  S   LIG    1       28.630 -20.299   6.424  0.00  0.00    +0.056 S 
ATOM     20  O   LIG    1       29.030 -21.545   7.047  0.00  0.00    -0.153 OA
ATOM     21  O   LIG    1       28.828 -19.030   7.060  0.00  0.00    -0.153 OA
BRANCH  19  22
ATOM     22  N   LIG    1       29.463 -20.234   4.970  0.00  0.00    -0.203 NA
ATOM     23  H   LIG    1       30.159 -20.979   4.939  0.00  0.00    +0.144 HD
ATOM     24  H   LIG    1       29.869 -19.302   4.858  0.00  0.00    +0.144 HD
ENDBRANCH  19  22
ENDBRANCH   5  19
BRANCH   2  25
ATOM     25  O   LIG    1       22.851 -20.355   5.077  0.00  0.00    -0.494 OA
ATOM     26  C   LIG    1       22.104 -21.525   5.402  0.00  0.00    +0.277 C 
ENDBRANCH   2  25
TORSDOF 7
ENDMDL
MODEL 5
REMARK VINA RESULT:      -2.5      3.017      6.476
REMARK  Name = *****
REMARK                            x       y       z     vdW  Elec       q    Type
REMARK                         _______ _______ _______ _____ _____    ______ ____
ROOT
ATOM      1  C   LIG    1       26.760 -18.868   4.831  0.00  0.00    +0.080 A 
ATOM      2  C   LIG    1       27.610 -19.682   5.607  0.00  0.00    +0.132 A 
ATOM      3  C   LIG    1       27.080 -20.803   6.268  0.00  0.00    +0.048 A 
ATOM      4  C   LIG    1       25.744 -21.168   6.099  0.00  0.00    +0.032 A 
ATOM      5  C   LIG    1       24.910 -20.374   5.320  0.00  0.00    +0.106 A 
ATOM      6  C   LIG    1       25.401 -19.212   4.709  0.00  0.00    +0.045 A 
ENDROOT
BRANCH   1   9
ATOM      7  N   LIG    1       26.239 -16.963   3.383  0.00  0.00    -0.310 N 
ATOM      8  H   LIG    1       25.303 -17.347   3.380  0.00  0.00    +0.149 HD
ATOM      9  C   LIG    1       27.212 -17.669   4.050  0.00  0.00    +0.248 C 
ATOM     10  O   LIG    1       28.389 -17.328   4.079  0.00  0.00    -0.270 OA
BRANCH   7  11
ATOM     11  C   LIG    1       26.505 -15.762   2.600  0.00  0.00    +0.123 C 
BRANCH  11  13
ATOM     12  N   LIG    1       25.320 -14.479   4.440  0.00  0.00    -0.298 NA
ATOM     13  C   LIG    1       26.382 -14.444   3.408  0.00  0.00    +0.074 C 
ATOM     14  C   LIG    1       27.654 -14.120   4.192  0.00  0.00    +0.021 C 
ATOM     15  C   LIG    1       27.180 -13.235   5.326  0.00  0.00    +0.017 C 
ATOM     16  C   LIG    1       25.732 -13.627   5.558  0.00  0.00    +0.085 C 
BRANCH  12  18
ATOM     17  C   LIG    1       24.040 -12.778   3.138  0.00  0.00    +0.020 C 
ATOM     18  C   LIG    1       24.006 -14.102   3.896  0.00  0.00    +0.081 C 
ENDBRANCH  12  18
ENDBRANCH  11  13
ENDBRANCH   7  11
ENDBRANCH   1   9
BRANCH   5  19
ATOM     19  S   LIG    1       23.267 -20.920   4.944  0.00  0.00    +0.056 S 
ATOM     20  O   LIG    1       22.719 -21.572   6.116  0.00  0.00    -0.153 OA
ATOM     21  O   LIG    1       23.257 -21.540   3.651  0.00  0.00    -0.153 OA
BRANCH  19  22
ATOM     22  N   LIG    1       22.416 -19.484   4.786  0.00  0.00    -0.203 NA
ATOM     23  H   LIG    1       21.439 -19.685   4.576  0.00  0.00    +0.144 HD
ATOM     24  H   LIG    1       22.867 -18.904   4.076  0.00  0.00    +0.144 HD
ENDBRANCH  19  22
ENDBRANCH   5  19
BRANCH   2  25
ATOM     25  O   LIG    1       28.934 -19.333   5.712  0.00  0.00    -0.494 OA
ATOM     26  C   LIG    1       29.402 -19.067   7.032  0.00  0.00    +0.277 C 
ENDBRANCH   2  25
TORSDOF 7
ENDMDL
MODEL 6
REMARK VINA RESULT:      -2.1      3.158      7.154
REMARK  Name = *****
REMARK                            x       y       z     vdW  Elec       q    Type
REMARK                         _______ _______ _______ _____ _____    ______ ____
ROOT
ATOM      1  C   LIG    1       24.494 -17.030   3.698  0.00  0.00    +0.080 A 
ATOM      2  C   LIG    1       23.278 -16.496   4.172  0.00  0.00    +0.132 A 
ATOM      3  C   LIG    1       22.243 -17.366   4.556  0.00  0.00    +0.048 A 
ATOM      4  C   LIG    1       22.433 -18.748   4.554  0.00  0.00    +0.032 A 
ATOM      5  C   LIG    1       23.639 -19.274   4.103  0.00  0.00    +0.106 A 
ATOM      6  C   LIG    1       24.659 -18.427   3.648  0.00  0.00    +0.045 A 
ENDROOT
BRANCH   1   9
ATOM      7  N   LIG    1       25.425 -15.023   2.650  0.00  0.00    -0.310 N 
ATOM      8  H   LIG    1       24.464 -14.825   2.403  0.00  0.00    +0.149 HD
ATOM      9  C   LIG    1       25.683 -16.209   3.294  0.00  0.00    +0.248 C 
ATOM     10  O   LIG    1       26.812 -16.579   3.596  0.00  0.00    -0.270 OA
BRANCH   7  11
ATOM     11  C   LIG    1       26.464 -14.097   2.214  0.00  0.00    +0.123 C 
BRANCH  11  13
ATOM     12  N   LIG    1       26.194 -13.258   4.591  0.00  0.00    -0.298 NA
ATOM     13  C   LIG    1       26.919 -13.100   3.311  0.00  0.00    +0.074 C 
ATOM     14  C   LIG    1       28.390 -13.282   3.689  0.00  0.00    +0.021 C 
ATOM     15  C   LIG    1       28.487 -12.725   5.093  0.00  0.00    +0.017 C 
ATOM     16  C   LIG    1       27.099 -12.892   5.685  0.00  0.00    +0.085 C 
BRANCH  12  18
ATOM     17  C   LIG    1       24.560 -11.937   3.246  0.00  0.00    +0.020 C 
ATOM     18  C   LIG    1       24.939 -12.491   4.616  0.00  0.00    +0.081 C 
ENDBRANCH  12  18
ENDBRANCH  11  13
ENDBRANCH   7  11
ENDBRANCH   1   9
BRANCH   5  19
ATOM     19  S   LIG    1       23.964 -21.007   4.269  0.00  0.00    +0.056 S 
ATOM     20  O   LIG    1       24.140 -21.572   2.946  0.00  0.00    -0.153 OA
ATOM     21  O   LIG    1       23.057 -21.572   5.225  0.00  0.00    -0.153 OA
BRANCH  19  22
ATOM     22  N   LIG    1       25.482 -21.043   4.980  0.00  0.00    -0.203 NA
ATOM     23  H   LIG    1       26.141 -21.513   4.360  0.00  0.00    +0.144 HD
ATOM     24  H   LIG    1       25.411 -21.485   5.899  0.00  0.00    +0.144 HD
ENDBRANCH  19  22
ENDBRANCH   5  19
BRANCH   2  25
ATOM     25  O   LIG    1       23.136 -15.131   4.216  0.00  0.00    -0.494 OA
ATOM     26  C   LIG    1       22.787 -14.585   5.485  0.00  0.00    +0.277 C 
ENDBRANCH   2  25
TORSDOF 7
ENDMDL
